version 2
run Delayer-0-20150506-23:39:52-4260
attr configname Delayer
attr datetime 20150506-23:39:52
attr experiment Delayer
attr inifile omnetpp.ini
attr iterationvars ""
attr iterationvars2 $repetition=0
attr measurement ""
attr network idsforwsn.networks.IDSforWSN
attr processid 4260
attr repetition 0
attr replication #0
attr resultdir results
attr runnumber 0
attr seedset 0

statistic IDSforWSN.simHelper 	numNeighbors
field count 251
field mean 30.545816733068
field stddev 9.2551008870935
field sum 7667
field sqrsum 255609
field min 12
field max 51
attr type  int
bin	-INF	0
bin	-8	0
bin	-7	0
bin	-6	0
bin	-5	0
bin	-4	0
bin	-3	0
bin	-2	0
bin	-1	0
bin	0	0
bin	1	0
bin	2	0
bin	3	0
bin	4	0
bin	5	0
bin	6	0
bin	7	0
bin	8	0
bin	9	0
bin	10	0
bin	11	0
bin	12	2
bin	13	1
bin	14	1
bin	15	2
bin	16	9
bin	17	6
bin	18	10
bin	19	8
bin	20	6
bin	21	9
bin	22	3
bin	23	8
bin	24	7
bin	25	11
bin	26	9
bin	27	12
bin	28	6
bin	29	10
bin	30	5
bin	31	10
bin	32	8
bin	33	4
bin	34	10
bin	35	8
bin	36	8
bin	37	8
bin	38	3
bin	39	19
bin	40	11
bin	41	3
bin	42	10
bin	43	7
bin	44	4
bin	45	1
bin	46	2
bin	47	3
bin	48	2
bin	49	2
bin	50	2
bin	51	1
bin	52	0
bin	53	0
bin	54	0
bin	55	0
bin	56	0
bin	57	0
bin	58	0
bin	59	0
bin	60	0
bin	61	0
bin	62	0
bin	63	0
bin	64	0
bin	65	0
bin	66	0
bin	67	0
bin	68	0
bin	69	0
bin	70	0
bin	71	0
scalar IDSforWSN.simHelper 	"neighbors in average" 	30.545816733068
scalar IDSforWSN.node[0].nic.ids 	neigh5PackRec 	9
scalar IDSforWSN.node[0].nic.ids 	neigh5PackFwd 	7
scalar IDSforWSN.node[0].nic.ids 	neigh5DropLoc 	0
scalar IDSforWSN.node[0].nic.ids 	neigh5DropGlob 	0
scalar IDSforWSN.node[0].nic.ids 	neigh5DelayLoc 	1
scalar IDSforWSN.node[0].nic.ids 	neigh5DelayGlob 	1
scalar IDSforWSN.node[0].nic.ids 	neighbour5IntentionalPacketDropping 	0
scalar IDSforWSN.node[0].nic.ids 	neigh8PackRec 	4
scalar IDSforWSN.node[0].nic.ids 	neigh8PackFwd 	0
scalar IDSforWSN.node[0].nic.ids 	neigh8DropLoc 	0
scalar IDSforWSN.node[0].nic.ids 	neigh8DropGlob 	0
scalar IDSforWSN.node[0].nic.ids 	neigh8DelayLoc 	1
scalar IDSforWSN.node[0].nic.ids 	neigh8DelayGlob 	1
scalar IDSforWSN.node[0].nic.ids 	neighbour8IntentionalPacketDropping 	0
scalar IDSforWSN.node[0].nic.ids 	neigh19PackRec 	161
scalar IDSforWSN.node[0].nic.ids 	neigh19PackFwd 	137
scalar IDSforWSN.node[0].nic.ids 	neigh19DropLoc 	0
scalar IDSforWSN.node[0].nic.ids 	neigh19DropGlob 	0
scalar IDSforWSN.node[0].nic.ids 	neigh19DelayLoc 	0
scalar IDSforWSN.node[0].nic.ids 	neigh19DelayGlob 	0
scalar IDSforWSN.node[0].nic.ids 	neighbour19IntentionalPacketDropping 	0
scalar IDSforWSN.node[0].nic.ids 	neigh27PackRec 	62
scalar IDSforWSN.node[0].nic.ids 	neigh27PackFwd 	45
scalar IDSforWSN.node[0].nic.ids 	neigh27DropLoc 	0
scalar IDSforWSN.node[0].nic.ids 	neigh27DropGlob 	0
scalar IDSforWSN.node[0].nic.ids 	neigh27DelayLoc 	1
scalar IDSforWSN.node[0].nic.ids 	neigh27DelayGlob 	1
scalar IDSforWSN.node[0].nic.ids 	neighbour27IntentionalPacketDropping 	0
scalar IDSforWSN.node[0].nic.ids 	neigh28PackRec 	14
scalar IDSforWSN.node[0].nic.ids 	neigh28PackFwd 	14
scalar IDSforWSN.node[0].nic.ids 	neigh28DropLoc 	0
scalar IDSforWSN.node[0].nic.ids 	neigh28DropGlob 	0
scalar IDSforWSN.node[0].nic.ids 	neigh28DelayLoc 	0
scalar IDSforWSN.node[0].nic.ids 	neigh28DelayGlob 	0
scalar IDSforWSN.node[0].nic.ids 	neighbour28IntentionalPacketDropping 	0
scalar IDSforWSN.node[0].nic.ids 	neigh41PackRec 	6
scalar IDSforWSN.node[0].nic.ids 	neigh41PackFwd 	4
scalar IDSforWSN.node[0].nic.ids 	neigh41DropLoc 	0
scalar IDSforWSN.node[0].nic.ids 	neigh41DropGlob 	0
scalar IDSforWSN.node[0].nic.ids 	neigh41DelayLoc 	1
scalar IDSforWSN.node[0].nic.ids 	neigh41DelayGlob 	1
scalar IDSforWSN.node[0].nic.ids 	neighbour41IntentionalPacketDropping 	0
scalar IDSforWSN.node[0].nic.ids 	neigh70PackRec 	1
scalar IDSforWSN.node[0].nic.ids 	neigh70PackFwd 	0
scalar IDSforWSN.node[0].nic.ids 	neigh70DropLoc 	0
scalar IDSforWSN.node[0].nic.ids 	neigh70DropGlob 	0
scalar IDSforWSN.node[0].nic.ids 	neigh70DelayLoc 	1
scalar IDSforWSN.node[0].nic.ids 	neigh70DelayGlob 	0
scalar IDSforWSN.node[0].nic.ids 	neighbour70IntentionalPacketDropping 	0
scalar IDSforWSN.node[0].nic.ids 	neigh93PackRec 	34
scalar IDSforWSN.node[0].nic.ids 	neigh93PackFwd 	33
scalar IDSforWSN.node[0].nic.ids 	neigh93DropLoc 	0
scalar IDSforWSN.node[0].nic.ids 	neigh93DropGlob 	0
scalar IDSforWSN.node[0].nic.ids 	neigh93DelayLoc 	0
scalar IDSforWSN.node[0].nic.ids 	neigh93DelayGlob 	0
scalar IDSforWSN.node[0].nic.ids 	neighbour93IntentionalPacketDropping 	0
scalar IDSforWSN.node[0].nic.ids 	neigh113PackRec 	2
scalar IDSforWSN.node[0].nic.ids 	neigh113PackFwd 	0
scalar IDSforWSN.node[0].nic.ids 	neigh113DropLoc 	0
scalar IDSforWSN.node[0].nic.ids 	neigh113DropGlob 	0
scalar IDSforWSN.node[0].nic.ids 	neigh113DelayLoc 	1
scalar IDSforWSN.node[0].nic.ids 	neigh113DelayGlob 	0
scalar IDSforWSN.node[0].nic.ids 	neighbour113IntentionalPacketDropping 	0
scalar IDSforWSN.node[0].nic.ids 	neigh116PackRec 	136
scalar IDSforWSN.node[0].nic.ids 	neigh116PackFwd 	105
scalar IDSforWSN.node[0].nic.ids 	neigh116DropLoc 	0
scalar IDSforWSN.node[0].nic.ids 	neigh116DropGlob 	0
scalar IDSforWSN.node[0].nic.ids 	neigh116DelayLoc 	1
scalar IDSforWSN.node[0].nic.ids 	neigh116DelayGlob 	0
scalar IDSforWSN.node[0].nic.ids 	neighbour116IntentionalPacketDropping 	0
scalar IDSforWSN.node[0].nic.ids 	neigh158PackRec 	1
scalar IDSforWSN.node[0].nic.ids 	neigh158PackFwd 	1
scalar IDSforWSN.node[0].nic.ids 	neigh158DropLoc 	0
scalar IDSforWSN.node[0].nic.ids 	neigh158DropGlob 	0
scalar IDSforWSN.node[0].nic.ids 	neigh158DelayLoc 	0
scalar IDSforWSN.node[0].nic.ids 	neigh158DelayGlob 	0
scalar IDSforWSN.node[0].nic.ids 	neighbour158IntentionalPacketDropping 	0
scalar IDSforWSN.node[0].nic.ids 	neigh206PackRec 	7
scalar IDSforWSN.node[0].nic.ids 	neigh206PackFwd 	0
scalar IDSforWSN.node[0].nic.ids 	neigh206DropLoc 	0
scalar IDSforWSN.node[0].nic.ids 	neigh206DropGlob 	0
scalar IDSforWSN.node[0].nic.ids 	neigh206DelayLoc 	1
scalar IDSforWSN.node[0].nic.ids 	neigh206DelayGlob 	1
scalar IDSforWSN.node[0].nic.ids 	neighbour206IntentionalPacketDropping 	0
scalar IDSforWSN.node[0].nic.ids 	neigh236PackRec 	3
scalar IDSforWSN.node[0].nic.ids 	neigh236PackFwd 	2
scalar IDSforWSN.node[0].nic.ids 	neigh236DropLoc 	0
scalar IDSforWSN.node[0].nic.ids 	neigh236DropGlob 	0
scalar IDSforWSN.node[0].nic.ids 	neigh236DelayLoc 	0
scalar IDSforWSN.node[0].nic.ids 	neigh236DelayGlob 	0
scalar IDSforWSN.node[0].nic.ids 	neighbour236IntentionalPacketDropping 	0
scalar IDSforWSN.node[0].nic.ids 	neigh237PackRec 	4
scalar IDSforWSN.node[0].nic.ids 	neigh237PackFwd 	4
scalar IDSforWSN.node[0].nic.ids 	neigh237DropLoc 	0
scalar IDSforWSN.node[0].nic.ids 	neigh237DropGlob 	0
scalar IDSforWSN.node[0].nic.ids 	neigh237DelayLoc 	0
scalar IDSforWSN.node[0].nic.ids 	neigh237DelayGlob 	0
scalar IDSforWSN.node[0].nic.ids 	neighbour237IntentionalPacketDropping 	0
scalar IDSforWSN.node[0].nic.ids 	neigh241PackRec 	36
scalar IDSforWSN.node[0].nic.ids 	neigh241PackFwd 	25
scalar IDSforWSN.node[0].nic.ids 	neigh241DropLoc 	0
scalar IDSforWSN.node[0].nic.ids 	neigh241DropGlob 	0
scalar IDSforWSN.node[0].nic.ids 	neigh241DelayLoc 	1
scalar IDSforWSN.node[0].nic.ids 	neigh241DelayGlob 	0
scalar IDSforWSN.node[0].nic.ids 	neighbour241IntentionalPacketDropping 	0
scalar IDSforWSN.node[0].nic.ids 	Neigbors_forwardersMap 	15
scalar IDSforWSN.node[0].nic.ids 	Neighbors_neighborsSet 	39
scalar IDSforWSN.node[0].nic.ids 	data_packets_intercepted 	912
scalar IDSforWSN.node[0].nic.ids 	data_packets_me_to_somebody 	77
scalar IDSforWSN.node[0].nic.ids 	data_packets_somebody_to_me 	72
scalar IDSforWSN.node[0].nic.ids 	data_packets_somebody_to_somebody 	763
scalar IDSforWSN.node[1].nic.ids 	neigh8PackRec 	132
scalar IDSforWSN.node[1].nic.ids 	neigh8PackFwd 	53
scalar IDSforWSN.node[1].nic.ids 	neigh8DropLoc 	0
scalar IDSforWSN.node[1].nic.ids 	neigh8DropGlob 	0
scalar IDSforWSN.node[1].nic.ids 	neigh8DelayLoc 	1
scalar IDSforWSN.node[1].nic.ids 	neigh8DelayGlob 	1
scalar IDSforWSN.node[1].nic.ids 	neighbour8IntentionalPacketDropping 	0
scalar IDSforWSN.node[1].nic.ids 	neigh32PackRec 	1
scalar IDSforWSN.node[1].nic.ids 	neigh32PackFwd 	1
scalar IDSforWSN.node[1].nic.ids 	neigh32DropLoc 	0
scalar IDSforWSN.node[1].nic.ids 	neigh32DropGlob 	0
scalar IDSforWSN.node[1].nic.ids 	neigh32DelayLoc 	0
scalar IDSforWSN.node[1].nic.ids 	neigh32DelayGlob 	0
scalar IDSforWSN.node[1].nic.ids 	neighbour32IntentionalPacketDropping 	0
scalar IDSforWSN.node[1].nic.ids 	neigh49PackRec 	10
scalar IDSforWSN.node[1].nic.ids 	neigh49PackFwd 	7
scalar IDSforWSN.node[1].nic.ids 	neigh49DropLoc 	0
scalar IDSforWSN.node[1].nic.ids 	neigh49DropGlob 	0
scalar IDSforWSN.node[1].nic.ids 	neigh49DelayLoc 	1
scalar IDSforWSN.node[1].nic.ids 	neigh49DelayGlob 	0
scalar IDSforWSN.node[1].nic.ids 	neighbour49IntentionalPacketDropping 	0
scalar IDSforWSN.node[1].nic.ids 	neigh54PackRec 	192
scalar IDSforWSN.node[1].nic.ids 	neigh54PackFwd 	139
scalar IDSforWSN.node[1].nic.ids 	neigh54DropLoc 	0
scalar IDSforWSN.node[1].nic.ids 	neigh54DropGlob 	0
scalar IDSforWSN.node[1].nic.ids 	neigh54DelayLoc 	1
scalar IDSforWSN.node[1].nic.ids 	neigh54DelayGlob 	1
scalar IDSforWSN.node[1].nic.ids 	neighbour54IntentionalPacketDropping 	0
scalar IDSforWSN.node[1].nic.ids 	neigh76PackRec 	20
scalar IDSforWSN.node[1].nic.ids 	neigh76PackFwd 	18
scalar IDSforWSN.node[1].nic.ids 	neigh76DropLoc 	0
scalar IDSforWSN.node[1].nic.ids 	neigh76DropGlob 	0
scalar IDSforWSN.node[1].nic.ids 	neigh76DelayLoc 	1
scalar IDSforWSN.node[1].nic.ids 	neigh76DelayGlob 	1
scalar IDSforWSN.node[1].nic.ids 	neighbour76IntentionalPacketDropping 	0
scalar IDSforWSN.node[1].nic.ids 	neigh80PackRec 	4
scalar IDSforWSN.node[1].nic.ids 	neigh80PackFwd 	4
scalar IDSforWSN.node[1].nic.ids 	neigh80DropLoc 	0
scalar IDSforWSN.node[1].nic.ids 	neigh80DropGlob 	0
scalar IDSforWSN.node[1].nic.ids 	neigh80DelayLoc 	0
scalar IDSforWSN.node[1].nic.ids 	neigh80DelayGlob 	0
scalar IDSforWSN.node[1].nic.ids 	neighbour80IntentionalPacketDropping 	0
scalar IDSforWSN.node[1].nic.ids 	neigh82PackRec 	18
scalar IDSforWSN.node[1].nic.ids 	neigh82PackFwd 	18
scalar IDSforWSN.node[1].nic.ids 	neigh82DropLoc 	0
scalar IDSforWSN.node[1].nic.ids 	neigh82DropGlob 	0
scalar IDSforWSN.node[1].nic.ids 	neigh82DelayLoc 	0
scalar IDSforWSN.node[1].nic.ids 	neigh82DelayGlob 	0
scalar IDSforWSN.node[1].nic.ids 	neighbour82IntentionalPacketDropping 	0
scalar IDSforWSN.node[1].nic.ids 	neigh87PackRec 	39
scalar IDSforWSN.node[1].nic.ids 	neigh87PackFwd 	37
scalar IDSforWSN.node[1].nic.ids 	neigh87DropLoc 	0
scalar IDSforWSN.node[1].nic.ids 	neigh87DropGlob 	0
scalar IDSforWSN.node[1].nic.ids 	neigh87DelayLoc 	1
scalar IDSforWSN.node[1].nic.ids 	neigh87DelayGlob 	1
scalar IDSforWSN.node[1].nic.ids 	neighbour87IntentionalPacketDropping 	0
scalar IDSforWSN.node[1].nic.ids 	neigh90PackRec 	108
scalar IDSforWSN.node[1].nic.ids 	neigh90PackFwd 	100
scalar IDSforWSN.node[1].nic.ids 	neigh90DropLoc 	0
scalar IDSforWSN.node[1].nic.ids 	neigh90DropGlob 	0
scalar IDSforWSN.node[1].nic.ids 	neigh90DelayLoc 	0
scalar IDSforWSN.node[1].nic.ids 	neigh90DelayGlob 	0
scalar IDSforWSN.node[1].nic.ids 	neighbour90IntentionalPacketDropping 	0
scalar IDSforWSN.node[1].nic.ids 	neigh105PackRec 	9
scalar IDSforWSN.node[1].nic.ids 	neigh105PackFwd 	9
scalar IDSforWSN.node[1].nic.ids 	neigh105DropLoc 	0
scalar IDSforWSN.node[1].nic.ids 	neigh105DropGlob 	0
scalar IDSforWSN.node[1].nic.ids 	neigh105DelayLoc 	0
scalar IDSforWSN.node[1].nic.ids 	neigh105DelayGlob 	0
scalar IDSforWSN.node[1].nic.ids 	neighbour105IntentionalPacketDropping 	0
scalar IDSforWSN.node[1].nic.ids 	neigh106PackRec 	3
scalar IDSforWSN.node[1].nic.ids 	neigh106PackFwd 	3
scalar IDSforWSN.node[1].nic.ids 	neigh106DropLoc 	0
scalar IDSforWSN.node[1].nic.ids 	neigh106DropGlob 	0
scalar IDSforWSN.node[1].nic.ids 	neigh106DelayLoc 	0
scalar IDSforWSN.node[1].nic.ids 	neigh106DelayGlob 	0
scalar IDSforWSN.node[1].nic.ids 	neighbour106IntentionalPacketDropping 	0
scalar IDSforWSN.node[1].nic.ids 	neigh108PackRec 	129
scalar IDSforWSN.node[1].nic.ids 	neigh108PackFwd 	129
scalar IDSforWSN.node[1].nic.ids 	neigh108DropLoc 	0
scalar IDSforWSN.node[1].nic.ids 	neigh108DropGlob 	0
scalar IDSforWSN.node[1].nic.ids 	neigh108DelayLoc 	0
scalar IDSforWSN.node[1].nic.ids 	neigh108DelayGlob 	0
scalar IDSforWSN.node[1].nic.ids 	neighbour108IntentionalPacketDropping 	0
scalar IDSforWSN.node[1].nic.ids 	neigh122PackRec 	5
scalar IDSforWSN.node[1].nic.ids 	neigh122PackFwd 	3
scalar IDSforWSN.node[1].nic.ids 	neigh122DropLoc 	0
scalar IDSforWSN.node[1].nic.ids 	neigh122DropGlob 	0
scalar IDSforWSN.node[1].nic.ids 	neigh122DelayLoc 	1
scalar IDSforWSN.node[1].nic.ids 	neigh122DelayGlob 	0
scalar IDSforWSN.node[1].nic.ids 	neighbour122IntentionalPacketDropping 	0
scalar IDSforWSN.node[1].nic.ids 	neigh185PackRec 	20
scalar IDSforWSN.node[1].nic.ids 	neigh185PackFwd 	20
scalar IDSforWSN.node[1].nic.ids 	neigh185DropLoc 	0
scalar IDSforWSN.node[1].nic.ids 	neigh185DropGlob 	0
scalar IDSforWSN.node[1].nic.ids 	neigh185DelayLoc 	0
scalar IDSforWSN.node[1].nic.ids 	neigh185DelayGlob 	0
scalar IDSforWSN.node[1].nic.ids 	neighbour185IntentionalPacketDropping 	0
scalar IDSforWSN.node[1].nic.ids 	neigh190PackRec 	2
scalar IDSforWSN.node[1].nic.ids 	neigh190PackFwd 	2
scalar IDSforWSN.node[1].nic.ids 	neigh190DropLoc 	0
scalar IDSforWSN.node[1].nic.ids 	neigh190DropGlob 	0
scalar IDSforWSN.node[1].nic.ids 	neigh190DelayLoc 	0
scalar IDSforWSN.node[1].nic.ids 	neigh190DelayGlob 	0
scalar IDSforWSN.node[1].nic.ids 	neighbour190IntentionalPacketDropping 	0
scalar IDSforWSN.node[1].nic.ids 	neigh206PackRec 	49
scalar IDSforWSN.node[1].nic.ids 	neigh206PackFwd 	11
scalar IDSforWSN.node[1].nic.ids 	neigh206DropLoc 	0
scalar IDSforWSN.node[1].nic.ids 	neigh206DropGlob 	0
scalar IDSforWSN.node[1].nic.ids 	neigh206DelayLoc 	1
scalar IDSforWSN.node[1].nic.ids 	neigh206DelayGlob 	1
scalar IDSforWSN.node[1].nic.ids 	neighbour206IntentionalPacketDropping 	0
scalar IDSforWSN.node[1].nic.ids 	neigh246PackRec 	14
scalar IDSforWSN.node[1].nic.ids 	neigh246PackFwd 	1
scalar IDSforWSN.node[1].nic.ids 	neigh246DropLoc 	0
scalar IDSforWSN.node[1].nic.ids 	neigh246DropGlob 	0
scalar IDSforWSN.node[1].nic.ids 	neigh246DelayLoc 	1
scalar IDSforWSN.node[1].nic.ids 	neigh246DelayGlob 	1
scalar IDSforWSN.node[1].nic.ids 	neighbour246IntentionalPacketDropping 	0
scalar IDSforWSN.node[1].nic.ids 	Neigbors_forwardersMap 	17
scalar IDSforWSN.node[1].nic.ids 	Neighbors_neighborsSet 	46
scalar IDSforWSN.node[1].nic.ids 	data_packets_intercepted 	1064
scalar IDSforWSN.node[1].nic.ids 	data_packets_me_to_somebody 	5
scalar IDSforWSN.node[1].nic.ids 	data_packets_somebody_to_me 	0
scalar IDSforWSN.node[1].nic.ids 	data_packets_somebody_to_somebody 	1059
scalar IDSforWSN.node[2].nic.ids 	neigh16PackRec 	15
scalar IDSforWSN.node[2].nic.ids 	neigh16PackFwd 	15
scalar IDSforWSN.node[2].nic.ids 	neigh16DropLoc 	0
scalar IDSforWSN.node[2].nic.ids 	neigh16DropGlob 	0
scalar IDSforWSN.node[2].nic.ids 	neigh16DelayLoc 	0
scalar IDSforWSN.node[2].nic.ids 	neigh16DelayGlob 	0
scalar IDSforWSN.node[2].nic.ids 	neighbour16IntentionalPacketDropping 	0
scalar IDSforWSN.node[2].nic.ids 	neigh71PackRec 	50
scalar IDSforWSN.node[2].nic.ids 	neigh71PackFwd 	48
scalar IDSforWSN.node[2].nic.ids 	neigh71DropLoc 	0
scalar IDSforWSN.node[2].nic.ids 	neigh71DropGlob 	0
scalar IDSforWSN.node[2].nic.ids 	neigh71DelayLoc 	0
scalar IDSforWSN.node[2].nic.ids 	neigh71DelayGlob 	0
scalar IDSforWSN.node[2].nic.ids 	neighbour71IntentionalPacketDropping 	0
scalar IDSforWSN.node[2].nic.ids 	neigh83PackRec 	5
scalar IDSforWSN.node[2].nic.ids 	neigh83PackFwd 	4
scalar IDSforWSN.node[2].nic.ids 	neigh83DropLoc 	0
scalar IDSforWSN.node[2].nic.ids 	neigh83DropGlob 	0
scalar IDSforWSN.node[2].nic.ids 	neigh83DelayLoc 	1
scalar IDSforWSN.node[2].nic.ids 	neigh83DelayGlob 	0
scalar IDSforWSN.node[2].nic.ids 	neighbour83IntentionalPacketDropping 	0
scalar IDSforWSN.node[2].nic.ids 	neigh169PackRec 	2
scalar IDSforWSN.node[2].nic.ids 	neigh169PackFwd 	0
scalar IDSforWSN.node[2].nic.ids 	neigh169DropLoc 	0
scalar IDSforWSN.node[2].nic.ids 	neigh169DropGlob 	0
scalar IDSforWSN.node[2].nic.ids 	neigh169DelayLoc 	1
scalar IDSforWSN.node[2].nic.ids 	neigh169DelayGlob 	1
scalar IDSforWSN.node[2].nic.ids 	neighbour169IntentionalPacketDropping 	0
scalar IDSforWSN.node[2].nic.ids 	neigh196PackRec 	1
scalar IDSforWSN.node[2].nic.ids 	neigh196PackFwd 	0
scalar IDSforWSN.node[2].nic.ids 	neigh196DropLoc 	0
scalar IDSforWSN.node[2].nic.ids 	neigh196DropGlob 	0
scalar IDSforWSN.node[2].nic.ids 	neigh196DelayLoc 	1
scalar IDSforWSN.node[2].nic.ids 	neigh196DelayGlob 	0
scalar IDSforWSN.node[2].nic.ids 	neighbour196IntentionalPacketDropping 	0
scalar IDSforWSN.node[2].nic.ids 	neigh221PackRec 	4
scalar IDSforWSN.node[2].nic.ids 	neigh221PackFwd 	4
scalar IDSforWSN.node[2].nic.ids 	neigh221DropLoc 	0
scalar IDSforWSN.node[2].nic.ids 	neigh221DropGlob 	0
scalar IDSforWSN.node[2].nic.ids 	neigh221DelayLoc 	0
scalar IDSforWSN.node[2].nic.ids 	neigh221DelayGlob 	0
scalar IDSforWSN.node[2].nic.ids 	neighbour221IntentionalPacketDropping 	0
scalar IDSforWSN.node[2].nic.ids 	neigh226PackRec 	52
scalar IDSforWSN.node[2].nic.ids 	neigh226PackFwd 	8
scalar IDSforWSN.node[2].nic.ids 	neigh226DropLoc 	0
scalar IDSforWSN.node[2].nic.ids 	neigh226DropGlob 	0
scalar IDSforWSN.node[2].nic.ids 	neigh226DelayLoc 	1
scalar IDSforWSN.node[2].nic.ids 	neigh226DelayGlob 	1
scalar IDSforWSN.node[2].nic.ids 	neighbour226IntentionalPacketDropping 	0
scalar IDSforWSN.node[2].nic.ids 	neigh235PackRec 	9
scalar IDSforWSN.node[2].nic.ids 	neigh235PackFwd 	2
scalar IDSforWSN.node[2].nic.ids 	neigh235DropLoc 	0
scalar IDSforWSN.node[2].nic.ids 	neigh235DropGlob 	0
scalar IDSforWSN.node[2].nic.ids 	neigh235DelayLoc 	1
scalar IDSforWSN.node[2].nic.ids 	neigh235DelayGlob 	0
scalar IDSforWSN.node[2].nic.ids 	neighbour235IntentionalPacketDropping 	0
scalar IDSforWSN.node[2].nic.ids 	Neigbors_forwardersMap 	8
scalar IDSforWSN.node[2].nic.ids 	Neighbors_neighborsSet 	18
scalar IDSforWSN.node[2].nic.ids 	data_packets_intercepted 	165
scalar IDSforWSN.node[2].nic.ids 	data_packets_me_to_somebody 	10
scalar IDSforWSN.node[2].nic.ids 	data_packets_somebody_to_me 	5
scalar IDSforWSN.node[2].nic.ids 	data_packets_somebody_to_somebody 	150
scalar IDSforWSN.node[3].nic.ids 	neigh13PackRec 	3
scalar IDSforWSN.node[3].nic.ids 	neigh13PackFwd 	1
scalar IDSforWSN.node[3].nic.ids 	neigh13DropLoc 	0
scalar IDSforWSN.node[3].nic.ids 	neigh13DropGlob 	0
scalar IDSforWSN.node[3].nic.ids 	neigh13DelayLoc 	1
scalar IDSforWSN.node[3].nic.ids 	neigh13DelayGlob 	0
scalar IDSforWSN.node[3].nic.ids 	neighbour13IntentionalPacketDropping 	0
scalar IDSforWSN.node[3].nic.ids 	neigh39PackRec 	2
scalar IDSforWSN.node[3].nic.ids 	neigh39PackFwd 	0
scalar IDSforWSN.node[3].nic.ids 	neigh39DropLoc 	0
scalar IDSforWSN.node[3].nic.ids 	neigh39DropGlob 	0
scalar IDSforWSN.node[3].nic.ids 	neigh39DelayLoc 	1
scalar IDSforWSN.node[3].nic.ids 	neigh39DelayGlob 	0
scalar IDSforWSN.node[3].nic.ids 	neighbour39IntentionalPacketDropping 	0
scalar IDSforWSN.node[3].nic.ids 	neigh57PackRec 	5
scalar IDSforWSN.node[3].nic.ids 	neigh57PackFwd 	5
scalar IDSforWSN.node[3].nic.ids 	neigh57DropLoc 	0
scalar IDSforWSN.node[3].nic.ids 	neigh57DropGlob 	0
scalar IDSforWSN.node[3].nic.ids 	neigh57DelayLoc 	0
scalar IDSforWSN.node[3].nic.ids 	neigh57DelayGlob 	0
scalar IDSforWSN.node[3].nic.ids 	neighbour57IntentionalPacketDropping 	0
scalar IDSforWSN.node[3].nic.ids 	neigh73PackRec 	36
scalar IDSforWSN.node[3].nic.ids 	neigh73PackFwd 	7
scalar IDSforWSN.node[3].nic.ids 	neigh73DropLoc 	0
scalar IDSforWSN.node[3].nic.ids 	neigh73DropGlob 	0
scalar IDSforWSN.node[3].nic.ids 	neigh73DelayLoc 	1
scalar IDSforWSN.node[3].nic.ids 	neigh73DelayGlob 	1
scalar IDSforWSN.node[3].nic.ids 	neighbour73IntentionalPacketDropping 	0
scalar IDSforWSN.node[3].nic.ids 	neigh81PackRec 	31
scalar IDSforWSN.node[3].nic.ids 	neigh81PackFwd 	18
scalar IDSforWSN.node[3].nic.ids 	neigh81DropLoc 	0
scalar IDSforWSN.node[3].nic.ids 	neigh81DropGlob 	0
scalar IDSforWSN.node[3].nic.ids 	neigh81DelayLoc 	1
scalar IDSforWSN.node[3].nic.ids 	neigh81DelayGlob 	1
scalar IDSforWSN.node[3].nic.ids 	neighbour81IntentionalPacketDropping 	0
scalar IDSforWSN.node[3].nic.ids 	neigh120PackRec 	8
scalar IDSforWSN.node[3].nic.ids 	neigh120PackFwd 	7
scalar IDSforWSN.node[3].nic.ids 	neigh120DropLoc 	0
scalar IDSforWSN.node[3].nic.ids 	neigh120DropGlob 	0
scalar IDSforWSN.node[3].nic.ids 	neigh120DelayLoc 	1
scalar IDSforWSN.node[3].nic.ids 	neigh120DelayGlob 	0
scalar IDSforWSN.node[3].nic.ids 	neighbour120IntentionalPacketDropping 	0
scalar IDSforWSN.node[3].nic.ids 	neigh142PackRec 	25
scalar IDSforWSN.node[3].nic.ids 	neigh142PackFwd 	22
scalar IDSforWSN.node[3].nic.ids 	neigh142DropLoc 	0
scalar IDSforWSN.node[3].nic.ids 	neigh142DropGlob 	0
scalar IDSforWSN.node[3].nic.ids 	neigh142DelayLoc 	1
scalar IDSforWSN.node[3].nic.ids 	neigh142DelayGlob 	0
scalar IDSforWSN.node[3].nic.ids 	neighbour142IntentionalPacketDropping 	0
scalar IDSforWSN.node[3].nic.ids 	neigh197PackRec 	29
scalar IDSforWSN.node[3].nic.ids 	neigh197PackFwd 	0
scalar IDSforWSN.node[3].nic.ids 	neigh197DropLoc 	0
scalar IDSforWSN.node[3].nic.ids 	neigh197DropGlob 	0
scalar IDSforWSN.node[3].nic.ids 	neigh197DelayLoc 	1
scalar IDSforWSN.node[3].nic.ids 	neigh197DelayGlob 	1
scalar IDSforWSN.node[3].nic.ids 	neighbour197IntentionalPacketDropping 	0
scalar IDSforWSN.node[3].nic.ids 	neigh203PackRec 	23
scalar IDSforWSN.node[3].nic.ids 	neigh203PackFwd 	22
scalar IDSforWSN.node[3].nic.ids 	neigh203DropLoc 	0
scalar IDSforWSN.node[3].nic.ids 	neigh203DropGlob 	0
scalar IDSforWSN.node[3].nic.ids 	neigh203DelayLoc 	1
scalar IDSforWSN.node[3].nic.ids 	neigh203DelayGlob 	0
scalar IDSforWSN.node[3].nic.ids 	neighbour203IntentionalPacketDropping 	0
scalar IDSforWSN.node[3].nic.ids 	Neigbors_forwardersMap 	9
scalar IDSforWSN.node[3].nic.ids 	Neighbors_neighborsSet 	24
scalar IDSforWSN.node[3].nic.ids 	data_packets_intercepted 	194
scalar IDSforWSN.node[3].nic.ids 	data_packets_me_to_somebody 	15
scalar IDSforWSN.node[3].nic.ids 	data_packets_somebody_to_me 	10
scalar IDSforWSN.node[3].nic.ids 	data_packets_somebody_to_somebody 	169
scalar IDSforWSN.node[4].nic.ids 	neigh17PackRec 	13
scalar IDSforWSN.node[4].nic.ids 	neigh17PackFwd 	13
scalar IDSforWSN.node[4].nic.ids 	neigh17DropLoc 	0
scalar IDSforWSN.node[4].nic.ids 	neigh17DropGlob 	0
scalar IDSforWSN.node[4].nic.ids 	neigh17DelayLoc 	0
scalar IDSforWSN.node[4].nic.ids 	neigh17DelayGlob 	0
scalar IDSforWSN.node[4].nic.ids 	neighbour17IntentionalPacketDropping 	0
scalar IDSforWSN.node[4].nic.ids 	neigh35PackRec 	14
scalar IDSforWSN.node[4].nic.ids 	neigh35PackFwd 	12
scalar IDSforWSN.node[4].nic.ids 	neigh35DropLoc 	0
scalar IDSforWSN.node[4].nic.ids 	neigh35DropGlob 	0
scalar IDSforWSN.node[4].nic.ids 	neigh35DelayLoc 	1
scalar IDSforWSN.node[4].nic.ids 	neigh35DelayGlob 	0
scalar IDSforWSN.node[4].nic.ids 	neighbour35IntentionalPacketDropping 	0
scalar IDSforWSN.node[4].nic.ids 	neigh38PackRec 	2
scalar IDSforWSN.node[4].nic.ids 	neigh38PackFwd 	0
scalar IDSforWSN.node[4].nic.ids 	neigh38DropLoc 	0
scalar IDSforWSN.node[4].nic.ids 	neigh38DropGlob 	0
scalar IDSforWSN.node[4].nic.ids 	neigh38DelayLoc 	1
scalar IDSforWSN.node[4].nic.ids 	neigh38DelayGlob 	0
scalar IDSforWSN.node[4].nic.ids 	neighbour38IntentionalPacketDropping 	0
scalar IDSforWSN.node[4].nic.ids 	neigh42PackRec 	1
scalar IDSforWSN.node[4].nic.ids 	neigh42PackFwd 	0
scalar IDSforWSN.node[4].nic.ids 	neigh42DropLoc 	0
scalar IDSforWSN.node[4].nic.ids 	neigh42DropGlob 	0
scalar IDSforWSN.node[4].nic.ids 	neigh42DelayLoc 	1
scalar IDSforWSN.node[4].nic.ids 	neigh42DelayGlob 	0
scalar IDSforWSN.node[4].nic.ids 	neighbour42IntentionalPacketDropping 	0
scalar IDSforWSN.node[4].nic.ids 	neigh95PackRec 	4
scalar IDSforWSN.node[4].nic.ids 	neigh95PackFwd 	2
scalar IDSforWSN.node[4].nic.ids 	neigh95DropLoc 	0
scalar IDSforWSN.node[4].nic.ids 	neigh95DropGlob 	0
scalar IDSforWSN.node[4].nic.ids 	neigh95DelayLoc 	1
scalar IDSforWSN.node[4].nic.ids 	neigh95DelayGlob 	0
scalar IDSforWSN.node[4].nic.ids 	neighbour95IntentionalPacketDropping 	0
scalar IDSforWSN.node[4].nic.ids 	neigh124PackRec 	20
scalar IDSforWSN.node[4].nic.ids 	neigh124PackFwd 	9
scalar IDSforWSN.node[4].nic.ids 	neigh124DropLoc 	0
scalar IDSforWSN.node[4].nic.ids 	neigh124DropGlob 	0
scalar IDSforWSN.node[4].nic.ids 	neigh124DelayLoc 	1
scalar IDSforWSN.node[4].nic.ids 	neigh124DelayGlob 	1
scalar IDSforWSN.node[4].nic.ids 	neighbour124IntentionalPacketDropping 	0
scalar IDSforWSN.node[4].nic.ids 	neigh165PackRec 	32
scalar IDSforWSN.node[4].nic.ids 	neigh165PackFwd 	5
scalar IDSforWSN.node[4].nic.ids 	neigh165DropLoc 	0
scalar IDSforWSN.node[4].nic.ids 	neigh165DropGlob 	0
scalar IDSforWSN.node[4].nic.ids 	neigh165DelayLoc 	1
scalar IDSforWSN.node[4].nic.ids 	neigh165DelayGlob 	1
scalar IDSforWSN.node[4].nic.ids 	neighbour165IntentionalPacketDropping 	0
scalar IDSforWSN.node[4].nic.ids 	neigh212PackRec 	24
scalar IDSforWSN.node[4].nic.ids 	neigh212PackFwd 	19
scalar IDSforWSN.node[4].nic.ids 	neigh212DropLoc 	0
scalar IDSforWSN.node[4].nic.ids 	neigh212DropGlob 	0
scalar IDSforWSN.node[4].nic.ids 	neigh212DelayLoc 	1
scalar IDSforWSN.node[4].nic.ids 	neigh212DelayGlob 	1
scalar IDSforWSN.node[4].nic.ids 	neighbour212IntentionalPacketDropping 	0
scalar IDSforWSN.node[4].nic.ids 	Neigbors_forwardersMap 	8
scalar IDSforWSN.node[4].nic.ids 	Neighbors_neighborsSet 	18
scalar IDSforWSN.node[4].nic.ids 	data_packets_intercepted 	136
scalar IDSforWSN.node[4].nic.ids 	data_packets_me_to_somebody 	5
scalar IDSforWSN.node[4].nic.ids 	data_packets_somebody_to_me 	0
scalar IDSforWSN.node[4].nic.ids 	data_packets_somebody_to_somebody 	131
scalar IDSforWSN.node[5].nic.ids 	neigh0PackRec 	44
scalar IDSforWSN.node[5].nic.ids 	neigh0PackFwd 	26
scalar IDSforWSN.node[5].nic.ids 	neigh0DropLoc 	0
scalar IDSforWSN.node[5].nic.ids 	neigh0DropGlob 	0
scalar IDSforWSN.node[5].nic.ids 	neigh0DelayLoc 	1
scalar IDSforWSN.node[5].nic.ids 	neigh0DelayGlob 	1
scalar IDSforWSN.node[5].nic.ids 	neighbour0IntentionalPacketDropping 	0
scalar IDSforWSN.node[5].nic.ids 	neigh19PackRec 	137
scalar IDSforWSN.node[5].nic.ids 	neigh19PackFwd 	10
scalar IDSforWSN.node[5].nic.ids 	neigh19DropLoc 	0
scalar IDSforWSN.node[5].nic.ids 	neigh19DropGlob 	0
scalar IDSforWSN.node[5].nic.ids 	neigh19DelayLoc 	1
scalar IDSforWSN.node[5].nic.ids 	neigh19DelayGlob 	1
scalar IDSforWSN.node[5].nic.ids 	neighbour19IntentionalPacketDropping 	0
scalar IDSforWSN.node[5].nic.ids 	neigh27PackRec 	102
scalar IDSforWSN.node[5].nic.ids 	neigh27PackFwd 	83
scalar IDSforWSN.node[5].nic.ids 	neigh27DropLoc 	0
scalar IDSforWSN.node[5].nic.ids 	neigh27DropGlob 	0
scalar IDSforWSN.node[5].nic.ids 	neigh27DelayLoc 	1
scalar IDSforWSN.node[5].nic.ids 	neigh27DelayGlob 	1
scalar IDSforWSN.node[5].nic.ids 	neighbour27IntentionalPacketDropping 	0
scalar IDSforWSN.node[5].nic.ids 	neigh28PackRec 	1
scalar IDSforWSN.node[5].nic.ids 	neigh28PackFwd 	0
scalar IDSforWSN.node[5].nic.ids 	neigh28DropLoc 	0
scalar IDSforWSN.node[5].nic.ids 	neigh28DropGlob 	0
scalar IDSforWSN.node[5].nic.ids 	neigh28DelayLoc 	1
scalar IDSforWSN.node[5].nic.ids 	neigh28DelayGlob 	0
scalar IDSforWSN.node[5].nic.ids 	neighbour28IntentionalPacketDropping 	0
scalar IDSforWSN.node[5].nic.ids 	neigh29PackRec 	1
scalar IDSforWSN.node[5].nic.ids 	neigh29PackFwd 	1
scalar IDSforWSN.node[5].nic.ids 	neigh29DropLoc 	0
scalar IDSforWSN.node[5].nic.ids 	neigh29DropGlob 	0
scalar IDSforWSN.node[5].nic.ids 	neigh29DelayLoc 	0
scalar IDSforWSN.node[5].nic.ids 	neigh29DelayGlob 	0
scalar IDSforWSN.node[5].nic.ids 	neighbour29IntentionalPacketDropping 	0
scalar IDSforWSN.node[5].nic.ids 	neigh70PackRec 	18
scalar IDSforWSN.node[5].nic.ids 	neigh70PackFwd 	5
scalar IDSforWSN.node[5].nic.ids 	neigh70DropLoc 	0
scalar IDSforWSN.node[5].nic.ids 	neigh70DropGlob 	0
scalar IDSforWSN.node[5].nic.ids 	neigh70DelayLoc 	1
scalar IDSforWSN.node[5].nic.ids 	neigh70DelayGlob 	0
scalar IDSforWSN.node[5].nic.ids 	neighbour70IntentionalPacketDropping 	0
scalar IDSforWSN.node[5].nic.ids 	neigh93PackRec 	1
scalar IDSforWSN.node[5].nic.ids 	neigh93PackFwd 	0
scalar IDSforWSN.node[5].nic.ids 	neigh93DropLoc 	0
scalar IDSforWSN.node[5].nic.ids 	neigh93DropGlob 	0
scalar IDSforWSN.node[5].nic.ids 	neigh93DelayLoc 	1
scalar IDSforWSN.node[5].nic.ids 	neigh93DelayGlob 	1
scalar IDSforWSN.node[5].nic.ids 	neighbour93IntentionalPacketDropping 	0
scalar IDSforWSN.node[5].nic.ids 	neigh116PackRec 	2
scalar IDSforWSN.node[5].nic.ids 	neigh116PackFwd 	0
scalar IDSforWSN.node[5].nic.ids 	neigh116DropLoc 	0
scalar IDSforWSN.node[5].nic.ids 	neigh116DropGlob 	0
scalar IDSforWSN.node[5].nic.ids 	neigh116DelayLoc 	1
scalar IDSforWSN.node[5].nic.ids 	neigh116DelayGlob 	1
scalar IDSforWSN.node[5].nic.ids 	neighbour116IntentionalPacketDropping 	0
scalar IDSforWSN.node[5].nic.ids 	neigh127PackRec 	4
scalar IDSforWSN.node[5].nic.ids 	neigh127PackFwd 	0
scalar IDSforWSN.node[5].nic.ids 	neigh127DropLoc 	0
scalar IDSforWSN.node[5].nic.ids 	neigh127DropGlob 	0
scalar IDSforWSN.node[5].nic.ids 	neigh127DelayLoc 	1
scalar IDSforWSN.node[5].nic.ids 	neigh127DelayGlob 	1
scalar IDSforWSN.node[5].nic.ids 	neighbour127IntentionalPacketDropping 	0
scalar IDSforWSN.node[5].nic.ids 	neigh158PackRec 	6
scalar IDSforWSN.node[5].nic.ids 	neigh158PackFwd 	4
scalar IDSforWSN.node[5].nic.ids 	neigh158DropLoc 	0
scalar IDSforWSN.node[5].nic.ids 	neigh158DropGlob 	0
scalar IDSforWSN.node[5].nic.ids 	neigh158DelayLoc 	1
scalar IDSforWSN.node[5].nic.ids 	neigh158DelayGlob 	0
scalar IDSforWSN.node[5].nic.ids 	neighbour158IntentionalPacketDropping 	0
scalar IDSforWSN.node[5].nic.ids 	neigh200PackRec 	26
scalar IDSforWSN.node[5].nic.ids 	neigh200PackFwd 	24
scalar IDSforWSN.node[5].nic.ids 	neigh200DropLoc 	0
scalar IDSforWSN.node[5].nic.ids 	neigh200DropGlob 	0
scalar IDSforWSN.node[5].nic.ids 	neigh200DelayLoc 	1
scalar IDSforWSN.node[5].nic.ids 	neigh200DelayGlob 	0
scalar IDSforWSN.node[5].nic.ids 	neighbour200IntentionalPacketDropping 	0
scalar IDSforWSN.node[5].nic.ids 	neigh237PackRec 	9
scalar IDSforWSN.node[5].nic.ids 	neigh237PackFwd 	7
scalar IDSforWSN.node[5].nic.ids 	neigh237DropLoc 	0
scalar IDSforWSN.node[5].nic.ids 	neigh237DropGlob 	0
scalar IDSforWSN.node[5].nic.ids 	neigh237DelayLoc 	1
scalar IDSforWSN.node[5].nic.ids 	neigh237DelayGlob 	0
scalar IDSforWSN.node[5].nic.ids 	neighbour237IntentionalPacketDropping 	0
scalar IDSforWSN.node[5].nic.ids 	Neigbors_forwardersMap 	12
scalar IDSforWSN.node[5].nic.ids 	Neighbors_neighborsSet 	36
scalar IDSforWSN.node[5].nic.ids 	data_packets_intercepted 	487
scalar IDSforWSN.node[5].nic.ids 	data_packets_me_to_somebody 	88
scalar IDSforWSN.node[5].nic.ids 	data_packets_somebody_to_me 	83
scalar IDSforWSN.node[5].nic.ids 	data_packets_somebody_to_somebody 	316
scalar IDSforWSN.node[6].nic.ids 	neigh0PackRec 	14
scalar IDSforWSN.node[6].nic.ids 	neigh0PackFwd 	1
scalar IDSforWSN.node[6].nic.ids 	neigh0DropLoc 	0
scalar IDSforWSN.node[6].nic.ids 	neigh0DropGlob 	0
scalar IDSforWSN.node[6].nic.ids 	neigh0DelayLoc 	1
scalar IDSforWSN.node[6].nic.ids 	neigh0DelayGlob 	1
scalar IDSforWSN.node[6].nic.ids 	neighbour0IntentionalPacketDropping 	0
scalar IDSforWSN.node[6].nic.ids 	neigh9PackRec 	1
scalar IDSforWSN.node[6].nic.ids 	neigh9PackFwd 	1
scalar IDSforWSN.node[6].nic.ids 	neigh9DropLoc 	0
scalar IDSforWSN.node[6].nic.ids 	neigh9DropGlob 	0
scalar IDSforWSN.node[6].nic.ids 	neigh9DelayLoc 	0
scalar IDSforWSN.node[6].nic.ids 	neigh9DelayGlob 	0
scalar IDSforWSN.node[6].nic.ids 	neighbour9IntentionalPacketDropping 	0
scalar IDSforWSN.node[6].nic.ids 	neigh13PackRec 	4
scalar IDSforWSN.node[6].nic.ids 	neigh13PackFwd 	4
scalar IDSforWSN.node[6].nic.ids 	neigh13DropLoc 	0
scalar IDSforWSN.node[6].nic.ids 	neigh13DropGlob 	0
scalar IDSforWSN.node[6].nic.ids 	neigh13DelayLoc 	0
scalar IDSforWSN.node[6].nic.ids 	neigh13DelayGlob 	0
scalar IDSforWSN.node[6].nic.ids 	neighbour13IntentionalPacketDropping 	0
scalar IDSforWSN.node[6].nic.ids 	neigh15PackRec 	8
scalar IDSforWSN.node[6].nic.ids 	neigh15PackFwd 	8
scalar IDSforWSN.node[6].nic.ids 	neigh15DropLoc 	0
scalar IDSforWSN.node[6].nic.ids 	neigh15DropGlob 	0
scalar IDSforWSN.node[6].nic.ids 	neigh15DelayLoc 	0
scalar IDSforWSN.node[6].nic.ids 	neigh15DelayGlob 	0
scalar IDSforWSN.node[6].nic.ids 	neighbour15IntentionalPacketDropping 	0
scalar IDSforWSN.node[6].nic.ids 	neigh28PackRec 	23
scalar IDSforWSN.node[6].nic.ids 	neigh28PackFwd 	5
scalar IDSforWSN.node[6].nic.ids 	neigh28DropLoc 	0
scalar IDSforWSN.node[6].nic.ids 	neigh28DropGlob 	0
scalar IDSforWSN.node[6].nic.ids 	neigh28DelayLoc 	1
scalar IDSforWSN.node[6].nic.ids 	neigh28DelayGlob 	1
scalar IDSforWSN.node[6].nic.ids 	neighbour28IntentionalPacketDropping 	0
scalar IDSforWSN.node[6].nic.ids 	neigh39PackRec 	3
scalar IDSforWSN.node[6].nic.ids 	neigh39PackFwd 	3
scalar IDSforWSN.node[6].nic.ids 	neigh39DropLoc 	0
scalar IDSforWSN.node[6].nic.ids 	neigh39DropGlob 	0
scalar IDSforWSN.node[6].nic.ids 	neigh39DelayLoc 	0
scalar IDSforWSN.node[6].nic.ids 	neigh39DelayGlob 	0
scalar IDSforWSN.node[6].nic.ids 	neighbour39IntentionalPacketDropping 	0
scalar IDSforWSN.node[6].nic.ids 	neigh41PackRec 	11
scalar IDSforWSN.node[6].nic.ids 	neigh41PackFwd 	3
scalar IDSforWSN.node[6].nic.ids 	neigh41DropLoc 	0
scalar IDSforWSN.node[6].nic.ids 	neigh41DropGlob 	0
scalar IDSforWSN.node[6].nic.ids 	neigh41DelayLoc 	1
scalar IDSforWSN.node[6].nic.ids 	neigh41DelayGlob 	1
scalar IDSforWSN.node[6].nic.ids 	neighbour41IntentionalPacketDropping 	0
scalar IDSforWSN.node[6].nic.ids 	neigh73PackRec 	2
scalar IDSforWSN.node[6].nic.ids 	neigh73PackFwd 	1
scalar IDSforWSN.node[6].nic.ids 	neigh73DropLoc 	0
scalar IDSforWSN.node[6].nic.ids 	neigh73DropGlob 	0
scalar IDSforWSN.node[6].nic.ids 	neigh73DelayLoc 	1
scalar IDSforWSN.node[6].nic.ids 	neigh73DelayGlob 	0
scalar IDSforWSN.node[6].nic.ids 	neighbour73IntentionalPacketDropping 	0
scalar IDSforWSN.node[6].nic.ids 	neigh81PackRec 	11
scalar IDSforWSN.node[6].nic.ids 	neigh81PackFwd 	8
scalar IDSforWSN.node[6].nic.ids 	neigh81DropLoc 	0
scalar IDSforWSN.node[6].nic.ids 	neigh81DropGlob 	0
scalar IDSforWSN.node[6].nic.ids 	neigh81DelayLoc 	1
scalar IDSforWSN.node[6].nic.ids 	neigh81DelayGlob 	1
scalar IDSforWSN.node[6].nic.ids 	neighbour81IntentionalPacketDropping 	0
scalar IDSforWSN.node[6].nic.ids 	neigh104PackRec 	1
scalar IDSforWSN.node[6].nic.ids 	neigh104PackFwd 	0
scalar IDSforWSN.node[6].nic.ids 	neigh104DropLoc 	0
scalar IDSforWSN.node[6].nic.ids 	neigh104DropGlob 	0
scalar IDSforWSN.node[6].nic.ids 	neigh104DelayLoc 	1
scalar IDSforWSN.node[6].nic.ids 	neigh104DelayGlob 	0
scalar IDSforWSN.node[6].nic.ids 	neighbour104IntentionalPacketDropping 	0
scalar IDSforWSN.node[6].nic.ids 	neigh142PackRec 	3
scalar IDSforWSN.node[6].nic.ids 	neigh142PackFwd 	1
scalar IDSforWSN.node[6].nic.ids 	neigh142DropLoc 	0
scalar IDSforWSN.node[6].nic.ids 	neigh142DropGlob 	0
scalar IDSforWSN.node[6].nic.ids 	neigh142DelayLoc 	1
scalar IDSforWSN.node[6].nic.ids 	neigh142DelayGlob 	0
scalar IDSforWSN.node[6].nic.ids 	neighbour142IntentionalPacketDropping 	0
scalar IDSforWSN.node[6].nic.ids 	neigh194PackRec 	20
scalar IDSforWSN.node[6].nic.ids 	neigh194PackFwd 	20
scalar IDSforWSN.node[6].nic.ids 	neigh194DropLoc 	0
scalar IDSforWSN.node[6].nic.ids 	neigh194DropGlob 	0
scalar IDSforWSN.node[6].nic.ids 	neigh194DelayLoc 	0
scalar IDSforWSN.node[6].nic.ids 	neigh194DelayGlob 	0
scalar IDSforWSN.node[6].nic.ids 	neighbour194IntentionalPacketDropping 	0
scalar IDSforWSN.node[6].nic.ids 	neigh197PackRec 	79
scalar IDSforWSN.node[6].nic.ids 	neigh197PackFwd 	58
scalar IDSforWSN.node[6].nic.ids 	neigh197DropLoc 	0
scalar IDSforWSN.node[6].nic.ids 	neigh197DropGlob 	0
scalar IDSforWSN.node[6].nic.ids 	neigh197DelayLoc 	1
scalar IDSforWSN.node[6].nic.ids 	neigh197DelayGlob 	1
scalar IDSforWSN.node[6].nic.ids 	neighbour197IntentionalPacketDropping 	0
scalar IDSforWSN.node[6].nic.ids 	neigh224PackRec 	4
scalar IDSforWSN.node[6].nic.ids 	neigh224PackFwd 	0
scalar IDSforWSN.node[6].nic.ids 	neigh224DropLoc 	0
scalar IDSforWSN.node[6].nic.ids 	neigh224DropGlob 	0
scalar IDSforWSN.node[6].nic.ids 	neigh224DelayLoc 	1
scalar IDSforWSN.node[6].nic.ids 	neigh224DelayGlob 	0
scalar IDSforWSN.node[6].nic.ids 	neighbour224IntentionalPacketDropping 	0
scalar IDSforWSN.node[6].nic.ids 	neigh236PackRec 	75
scalar IDSforWSN.node[6].nic.ids 	neigh236PackFwd 	18
scalar IDSforWSN.node[6].nic.ids 	neigh236DropLoc 	0
scalar IDSforWSN.node[6].nic.ids 	neigh236DropGlob 	0
scalar IDSforWSN.node[6].nic.ids 	neigh236DelayLoc 	1
scalar IDSforWSN.node[6].nic.ids 	neigh236DelayGlob 	1
scalar IDSforWSN.node[6].nic.ids 	neighbour236IntentionalPacketDropping 	0
scalar IDSforWSN.node[6].nic.ids 	neigh237PackRec 	3
scalar IDSforWSN.node[6].nic.ids 	neigh237PackFwd 	2
scalar IDSforWSN.node[6].nic.ids 	neigh237DropLoc 	0
scalar IDSforWSN.node[6].nic.ids 	neigh237DropGlob 	0
scalar IDSforWSN.node[6].nic.ids 	neigh237DelayLoc 	1
scalar IDSforWSN.node[6].nic.ids 	neigh237DelayGlob 	0
scalar IDSforWSN.node[6].nic.ids 	neighbour237IntentionalPacketDropping 	0
scalar IDSforWSN.node[6].nic.ids 	neigh241PackRec 	13
scalar IDSforWSN.node[6].nic.ids 	neigh241PackFwd 	0
scalar IDSforWSN.node[6].nic.ids 	neigh241DropLoc 	0
scalar IDSforWSN.node[6].nic.ids 	neigh241DropGlob 	0
scalar IDSforWSN.node[6].nic.ids 	neigh241DelayLoc 	1
scalar IDSforWSN.node[6].nic.ids 	neigh241DelayGlob 	1
scalar IDSforWSN.node[6].nic.ids 	neighbour241IntentionalPacketDropping 	0
scalar IDSforWSN.node[6].nic.ids 	Neigbors_forwardersMap 	17
scalar IDSforWSN.node[6].nic.ids 	Neighbors_neighborsSet 	33
scalar IDSforWSN.node[6].nic.ids 	data_packets_intercepted 	340
scalar IDSforWSN.node[6].nic.ids 	data_packets_me_to_somebody 	20
scalar IDSforWSN.node[6].nic.ids 	data_packets_somebody_to_me 	15
scalar IDSforWSN.node[6].nic.ids 	data_packets_somebody_to_somebody 	305
scalar IDSforWSN.node[7].nic.ids 	neigh34PackRec 	29
scalar IDSforWSN.node[7].nic.ids 	neigh34PackFwd 	29
scalar IDSforWSN.node[7].nic.ids 	neigh34DropLoc 	0
scalar IDSforWSN.node[7].nic.ids 	neigh34DropGlob 	0
scalar IDSforWSN.node[7].nic.ids 	neigh34DelayLoc 	0
scalar IDSforWSN.node[7].nic.ids 	neigh34DelayGlob 	0
scalar IDSforWSN.node[7].nic.ids 	neighbour34IntentionalPacketDropping 	0
scalar IDSforWSN.node[7].nic.ids 	neigh36PackRec 	3
scalar IDSforWSN.node[7].nic.ids 	neigh36PackFwd 	0
scalar IDSforWSN.node[7].nic.ids 	neigh36DropLoc 	0
scalar IDSforWSN.node[7].nic.ids 	neigh36DropGlob 	0
scalar IDSforWSN.node[7].nic.ids 	neigh36DelayLoc 	1
scalar IDSforWSN.node[7].nic.ids 	neigh36DelayGlob 	0
scalar IDSforWSN.node[7].nic.ids 	neighbour36IntentionalPacketDropping 	0
scalar IDSforWSN.node[7].nic.ids 	neigh46PackRec 	30
scalar IDSforWSN.node[7].nic.ids 	neigh46PackFwd 	4
scalar IDSforWSN.node[7].nic.ids 	neigh46DropLoc 	0
scalar IDSforWSN.node[7].nic.ids 	neigh46DropGlob 	0
scalar IDSforWSN.node[7].nic.ids 	neigh46DelayLoc 	1
scalar IDSforWSN.node[7].nic.ids 	neigh46DelayGlob 	1
scalar IDSforWSN.node[7].nic.ids 	neighbour46IntentionalPacketDropping 	0
scalar IDSforWSN.node[7].nic.ids 	neigh52PackRec 	9
scalar IDSforWSN.node[7].nic.ids 	neigh52PackFwd 	4
scalar IDSforWSN.node[7].nic.ids 	neigh52DropLoc 	0
scalar IDSforWSN.node[7].nic.ids 	neigh52DropGlob 	0
scalar IDSforWSN.node[7].nic.ids 	neigh52DelayLoc 	1
scalar IDSforWSN.node[7].nic.ids 	neigh52DelayGlob 	0
scalar IDSforWSN.node[7].nic.ids 	neighbour52IntentionalPacketDropping 	0
scalar IDSforWSN.node[7].nic.ids 	neigh163PackRec 	5
scalar IDSforWSN.node[7].nic.ids 	neigh163PackFwd 	0
scalar IDSforWSN.node[7].nic.ids 	neigh163DropLoc 	0
scalar IDSforWSN.node[7].nic.ids 	neigh163DropGlob 	0
scalar IDSforWSN.node[7].nic.ids 	neigh163DelayLoc 	1
scalar IDSforWSN.node[7].nic.ids 	neigh163DelayGlob 	1
scalar IDSforWSN.node[7].nic.ids 	neighbour163IntentionalPacketDropping 	0
scalar IDSforWSN.node[7].nic.ids 	neigh165PackRec 	1
scalar IDSforWSN.node[7].nic.ids 	neigh165PackFwd 	0
scalar IDSforWSN.node[7].nic.ids 	neigh165DropLoc 	0
scalar IDSforWSN.node[7].nic.ids 	neigh165DropGlob 	0
scalar IDSforWSN.node[7].nic.ids 	neigh165DelayLoc 	1
scalar IDSforWSN.node[7].nic.ids 	neigh165DelayGlob 	0
scalar IDSforWSN.node[7].nic.ids 	neighbour165IntentionalPacketDropping 	0
scalar IDSforWSN.node[7].nic.ids 	neigh216PackRec 	5
scalar IDSforWSN.node[7].nic.ids 	neigh216PackFwd 	5
scalar IDSforWSN.node[7].nic.ids 	neigh216DropLoc 	0
scalar IDSforWSN.node[7].nic.ids 	neigh216DropGlob 	0
scalar IDSforWSN.node[7].nic.ids 	neigh216DelayLoc 	0
scalar IDSforWSN.node[7].nic.ids 	neigh216DelayGlob 	0
scalar IDSforWSN.node[7].nic.ids 	neighbour216IntentionalPacketDropping 	0
scalar IDSforWSN.node[7].nic.ids 	Neigbors_forwardersMap 	7
scalar IDSforWSN.node[7].nic.ids 	Neighbors_neighborsSet 	16
scalar IDSforWSN.node[7].nic.ids 	data_packets_intercepted 	115
scalar IDSforWSN.node[7].nic.ids 	data_packets_me_to_somebody 	5
scalar IDSforWSN.node[7].nic.ids 	data_packets_somebody_to_me 	0
scalar IDSforWSN.node[7].nic.ids 	data_packets_somebody_to_somebody 	110
scalar IDSforWSN.node[8].nic.ids 	neigh19PackRec 	50
scalar IDSforWSN.node[8].nic.ids 	neigh19PackFwd 	47
scalar IDSforWSN.node[8].nic.ids 	neigh19DropLoc 	0
scalar IDSforWSN.node[8].nic.ids 	neigh19DropGlob 	0
scalar IDSforWSN.node[8].nic.ids 	neigh19DelayLoc 	0
scalar IDSforWSN.node[8].nic.ids 	neigh19DelayGlob 	0
scalar IDSforWSN.node[8].nic.ids 	neighbour19IntentionalPacketDropping 	0
scalar IDSforWSN.node[8].nic.ids 	neigh27PackRec 	7
scalar IDSforWSN.node[8].nic.ids 	neigh27PackFwd 	4
scalar IDSforWSN.node[8].nic.ids 	neigh27DropLoc 	0
scalar IDSforWSN.node[8].nic.ids 	neigh27DropGlob 	0
scalar IDSforWSN.node[8].nic.ids 	neigh27DelayLoc 	1
scalar IDSforWSN.node[8].nic.ids 	neigh27DelayGlob 	0
scalar IDSforWSN.node[8].nic.ids 	neighbour27IntentionalPacketDropping 	0
scalar IDSforWSN.node[8].nic.ids 	neigh54PackRec 	124
scalar IDSforWSN.node[8].nic.ids 	neigh54PackFwd 	123
scalar IDSforWSN.node[8].nic.ids 	neigh54DropLoc 	0
scalar IDSforWSN.node[8].nic.ids 	neigh54DropGlob 	0
scalar IDSforWSN.node[8].nic.ids 	neigh54DelayLoc 	0
scalar IDSforWSN.node[8].nic.ids 	neigh54DelayGlob 	0
scalar IDSforWSN.node[8].nic.ids 	neighbour54IntentionalPacketDropping 	0
scalar IDSforWSN.node[8].nic.ids 	neigh70PackRec 	12
scalar IDSforWSN.node[8].nic.ids 	neigh70PackFwd 	9
scalar IDSforWSN.node[8].nic.ids 	neigh70DropLoc 	0
scalar IDSforWSN.node[8].nic.ids 	neigh70DropGlob 	0
scalar IDSforWSN.node[8].nic.ids 	neigh70DelayLoc 	1
scalar IDSforWSN.node[8].nic.ids 	neigh70DelayGlob 	0
scalar IDSforWSN.node[8].nic.ids 	neighbour70IntentionalPacketDropping 	0
scalar IDSforWSN.node[8].nic.ids 	neigh82PackRec 	2
scalar IDSforWSN.node[8].nic.ids 	neigh82PackFwd 	0
scalar IDSforWSN.node[8].nic.ids 	neigh82DropLoc 	0
scalar IDSforWSN.node[8].nic.ids 	neigh82DropGlob 	0
scalar IDSforWSN.node[8].nic.ids 	neigh82DelayLoc 	1
scalar IDSforWSN.node[8].nic.ids 	neigh82DelayGlob 	0
scalar IDSforWSN.node[8].nic.ids 	neighbour82IntentionalPacketDropping 	0
scalar IDSforWSN.node[8].nic.ids 	neigh87PackRec 	8
scalar IDSforWSN.node[8].nic.ids 	neigh87PackFwd 	5
scalar IDSforWSN.node[8].nic.ids 	neigh87DropLoc 	0
scalar IDSforWSN.node[8].nic.ids 	neigh87DropGlob 	0
scalar IDSforWSN.node[8].nic.ids 	neigh87DelayLoc 	1
scalar IDSforWSN.node[8].nic.ids 	neigh87DelayGlob 	1
scalar IDSforWSN.node[8].nic.ids 	neighbour87IntentionalPacketDropping 	0
scalar IDSforWSN.node[8].nic.ids 	neigh90PackRec 	1
scalar IDSforWSN.node[8].nic.ids 	neigh90PackFwd 	0
scalar IDSforWSN.node[8].nic.ids 	neigh90DropLoc 	0
scalar IDSforWSN.node[8].nic.ids 	neigh90DropGlob 	0
scalar IDSforWSN.node[8].nic.ids 	neigh90DelayLoc 	1
scalar IDSforWSN.node[8].nic.ids 	neigh90DelayGlob 	0
scalar IDSforWSN.node[8].nic.ids 	neighbour90IntentionalPacketDropping 	0
scalar IDSforWSN.node[8].nic.ids 	neigh93PackRec 	1
scalar IDSforWSN.node[8].nic.ids 	neigh93PackFwd 	0
scalar IDSforWSN.node[8].nic.ids 	neigh93DropLoc 	0
scalar IDSforWSN.node[8].nic.ids 	neigh93DropGlob 	0
scalar IDSforWSN.node[8].nic.ids 	neigh93DelayLoc 	1
scalar IDSforWSN.node[8].nic.ids 	neigh93DelayGlob 	0
scalar IDSforWSN.node[8].nic.ids 	neighbour93IntentionalPacketDropping 	0
scalar IDSforWSN.node[8].nic.ids 	neigh108PackRec 	57
scalar IDSforWSN.node[8].nic.ids 	neigh108PackFwd 	53
scalar IDSforWSN.node[8].nic.ids 	neigh108DropLoc 	0
scalar IDSforWSN.node[8].nic.ids 	neigh108DropGlob 	0
scalar IDSforWSN.node[8].nic.ids 	neigh108DelayLoc 	0
scalar IDSforWSN.node[8].nic.ids 	neigh108DelayGlob 	0
scalar IDSforWSN.node[8].nic.ids 	neighbour108IntentionalPacketDropping 	0
scalar IDSforWSN.node[8].nic.ids 	neigh113PackRec 	31
scalar IDSforWSN.node[8].nic.ids 	neigh113PackFwd 	29
scalar IDSforWSN.node[8].nic.ids 	neigh113DropLoc 	0
scalar IDSforWSN.node[8].nic.ids 	neigh113DropGlob 	0
scalar IDSforWSN.node[8].nic.ids 	neigh113DelayLoc 	0
scalar IDSforWSN.node[8].nic.ids 	neigh113DelayGlob 	0
scalar IDSforWSN.node[8].nic.ids 	neighbour113IntentionalPacketDropping 	0
scalar IDSforWSN.node[8].nic.ids 	neigh116PackRec 	33
scalar IDSforWSN.node[8].nic.ids 	neigh116PackFwd 	17
scalar IDSforWSN.node[8].nic.ids 	neigh116DropLoc 	0
scalar IDSforWSN.node[8].nic.ids 	neigh116DropGlob 	0
scalar IDSforWSN.node[8].nic.ids 	neigh116DelayLoc 	1
scalar IDSforWSN.node[8].nic.ids 	neigh116DelayGlob 	1
scalar IDSforWSN.node[8].nic.ids 	neighbour116IntentionalPacketDropping 	0
scalar IDSforWSN.node[8].nic.ids 	neigh185PackRec 	1
scalar IDSforWSN.node[8].nic.ids 	neigh185PackFwd 	1
scalar IDSforWSN.node[8].nic.ids 	neigh185DropLoc 	0
scalar IDSforWSN.node[8].nic.ids 	neigh185DropGlob 	0
scalar IDSforWSN.node[8].nic.ids 	neigh185DelayLoc 	0
scalar IDSforWSN.node[8].nic.ids 	neigh185DelayGlob 	0
scalar IDSforWSN.node[8].nic.ids 	neighbour185IntentionalPacketDropping 	0
scalar IDSforWSN.node[8].nic.ids 	neigh206PackRec 	55
scalar IDSforWSN.node[8].nic.ids 	neigh206PackFwd 	52
scalar IDSforWSN.node[8].nic.ids 	neigh206DropLoc 	0
scalar IDSforWSN.node[8].nic.ids 	neigh206DropGlob 	0
scalar IDSforWSN.node[8].nic.ids 	neigh206DelayLoc 	1
scalar IDSforWSN.node[8].nic.ids 	neigh206DelayGlob 	1
scalar IDSforWSN.node[8].nic.ids 	neighbour206IntentionalPacketDropping 	0
scalar IDSforWSN.node[8].nic.ids 	neigh211PackRec 	2
scalar IDSforWSN.node[8].nic.ids 	neigh211PackFwd 	0
scalar IDSforWSN.node[8].nic.ids 	neigh211DropLoc 	0
scalar IDSforWSN.node[8].nic.ids 	neigh211DropGlob 	0
scalar IDSforWSN.node[8].nic.ids 	neigh211DelayLoc 	1
scalar IDSforWSN.node[8].nic.ids 	neigh211DelayGlob 	0
scalar IDSforWSN.node[8].nic.ids 	neighbour211IntentionalPacketDropping 	0
scalar IDSforWSN.node[8].nic.ids 	neigh239PackRec 	1
scalar IDSforWSN.node[8].nic.ids 	neigh239PackFwd 	0
scalar IDSforWSN.node[8].nic.ids 	neigh239DropLoc 	0
scalar IDSforWSN.node[8].nic.ids 	neigh239DropGlob 	0
scalar IDSforWSN.node[8].nic.ids 	neigh239DelayLoc 	1
scalar IDSforWSN.node[8].nic.ids 	neigh239DelayGlob 	0
scalar IDSforWSN.node[8].nic.ids 	neighbour239IntentionalPacketDropping 	0
scalar IDSforWSN.node[8].nic.ids 	neigh246PackRec 	2
scalar IDSforWSN.node[8].nic.ids 	neigh246PackFwd 	2
scalar IDSforWSN.node[8].nic.ids 	neigh246DropLoc 	0
scalar IDSforWSN.node[8].nic.ids 	neigh246DropGlob 	0
scalar IDSforWSN.node[8].nic.ids 	neigh246DelayLoc 	0
scalar IDSforWSN.node[8].nic.ids 	neigh246DelayGlob 	0
scalar IDSforWSN.node[8].nic.ids 	neighbour246IntentionalPacketDropping 	0
scalar IDSforWSN.node[8].nic.ids 	Neigbors_forwardersMap 	16
scalar IDSforWSN.node[8].nic.ids 	Neighbors_neighborsSet 	42
scalar IDSforWSN.node[8].nic.ids 	data_packets_intercepted 	1603
scalar IDSforWSN.node[8].nic.ids 	data_packets_me_to_somebody 	208
scalar IDSforWSN.node[8].nic.ids 	data_packets_somebody_to_me 	203
scalar IDSforWSN.node[8].nic.ids 	data_packets_somebody_to_somebody 	1192
scalar IDSforWSN.node[9].nic.ids 	neigh0PackRec 	13
scalar IDSforWSN.node[9].nic.ids 	neigh0PackFwd 	4
scalar IDSforWSN.node[9].nic.ids 	neigh0DropLoc 	0
scalar IDSforWSN.node[9].nic.ids 	neigh0DropGlob 	0
scalar IDSforWSN.node[9].nic.ids 	neigh0DelayLoc 	1
scalar IDSforWSN.node[9].nic.ids 	neigh0DelayGlob 	1
scalar IDSforWSN.node[9].nic.ids 	neighbour0IntentionalPacketDropping 	0
scalar IDSforWSN.node[9].nic.ids 	neigh19PackRec 	33
scalar IDSforWSN.node[9].nic.ids 	neigh19PackFwd 	11
scalar IDSforWSN.node[9].nic.ids 	neigh19DropLoc 	0
scalar IDSforWSN.node[9].nic.ids 	neigh19DropGlob 	0
scalar IDSforWSN.node[9].nic.ids 	neigh19DelayLoc 	1
scalar IDSforWSN.node[9].nic.ids 	neigh19DelayGlob 	1
scalar IDSforWSN.node[9].nic.ids 	neighbour19IntentionalPacketDropping 	0
scalar IDSforWSN.node[9].nic.ids 	neigh28PackRec 	5
scalar IDSforWSN.node[9].nic.ids 	neigh28PackFwd 	3
scalar IDSforWSN.node[9].nic.ids 	neigh28DropLoc 	0
scalar IDSforWSN.node[9].nic.ids 	neigh28DropGlob 	0
scalar IDSforWSN.node[9].nic.ids 	neigh28DelayLoc 	1
scalar IDSforWSN.node[9].nic.ids 	neigh28DelayGlob 	1
scalar IDSforWSN.node[9].nic.ids 	neighbour28IntentionalPacketDropping 	0
scalar IDSforWSN.node[9].nic.ids 	neigh59PackRec 	8
scalar IDSforWSN.node[9].nic.ids 	neigh59PackFwd 	3
scalar IDSforWSN.node[9].nic.ids 	neigh59DropLoc 	0
scalar IDSforWSN.node[9].nic.ids 	neigh59DropGlob 	0
scalar IDSforWSN.node[9].nic.ids 	neigh59DelayLoc 	1
scalar IDSforWSN.node[9].nic.ids 	neigh59DelayGlob 	0
scalar IDSforWSN.node[9].nic.ids 	neighbour59IntentionalPacketDropping 	0
scalar IDSforWSN.node[9].nic.ids 	neigh93PackRec 	28
scalar IDSforWSN.node[9].nic.ids 	neigh93PackFwd 	26
scalar IDSforWSN.node[9].nic.ids 	neigh93DropLoc 	0
scalar IDSforWSN.node[9].nic.ids 	neigh93DropGlob 	0
scalar IDSforWSN.node[9].nic.ids 	neigh93DelayLoc 	1
scalar IDSforWSN.node[9].nic.ids 	neigh93DelayGlob 	0
scalar IDSforWSN.node[9].nic.ids 	neighbour93IntentionalPacketDropping 	0
scalar IDSforWSN.node[9].nic.ids 	neigh116PackRec 	172
scalar IDSforWSN.node[9].nic.ids 	neigh116PackFwd 	153
scalar IDSforWSN.node[9].nic.ids 	neigh116DropLoc 	0
scalar IDSforWSN.node[9].nic.ids 	neigh116DropGlob 	0
scalar IDSforWSN.node[9].nic.ids 	neigh116DelayLoc 	0
scalar IDSforWSN.node[9].nic.ids 	neigh116DelayGlob 	0
scalar IDSforWSN.node[9].nic.ids 	neighbour116IntentionalPacketDropping 	0
scalar IDSforWSN.node[9].nic.ids 	neigh136PackRec 	4
scalar IDSforWSN.node[9].nic.ids 	neigh136PackFwd 	3
scalar IDSforWSN.node[9].nic.ids 	neigh136DropLoc 	0
scalar IDSforWSN.node[9].nic.ids 	neigh136DropGlob 	0
scalar IDSforWSN.node[9].nic.ids 	neigh136DelayLoc 	1
scalar IDSforWSN.node[9].nic.ids 	neigh136DelayGlob 	0
scalar IDSforWSN.node[9].nic.ids 	neighbour136IntentionalPacketDropping 	0
scalar IDSforWSN.node[9].nic.ids 	neigh182PackRec 	2
scalar IDSforWSN.node[9].nic.ids 	neigh182PackFwd 	1
scalar IDSforWSN.node[9].nic.ids 	neigh182DropLoc 	0
scalar IDSforWSN.node[9].nic.ids 	neigh182DropGlob 	0
scalar IDSforWSN.node[9].nic.ids 	neigh182DelayLoc 	1
scalar IDSforWSN.node[9].nic.ids 	neigh182DelayGlob 	0
scalar IDSforWSN.node[9].nic.ids 	neighbour182IntentionalPacketDropping 	0
scalar IDSforWSN.node[9].nic.ids 	neigh186PackRec 	3
scalar IDSforWSN.node[9].nic.ids 	neigh186PackFwd 	0
scalar IDSforWSN.node[9].nic.ids 	neigh186DropLoc 	0
scalar IDSforWSN.node[9].nic.ids 	neigh186DropGlob 	0
scalar IDSforWSN.node[9].nic.ids 	neigh186DelayLoc 	1
scalar IDSforWSN.node[9].nic.ids 	neigh186DelayGlob 	0
scalar IDSforWSN.node[9].nic.ids 	neighbour186IntentionalPacketDropping 	0
scalar IDSforWSN.node[9].nic.ids 	neigh194PackRec 	1
scalar IDSforWSN.node[9].nic.ids 	neigh194PackFwd 	0
scalar IDSforWSN.node[9].nic.ids 	neigh194DropLoc 	0
scalar IDSforWSN.node[9].nic.ids 	neigh194DropGlob 	0
scalar IDSforWSN.node[9].nic.ids 	neigh194DelayLoc 	1
scalar IDSforWSN.node[9].nic.ids 	neigh194DelayGlob 	0
scalar IDSforWSN.node[9].nic.ids 	neighbour194IntentionalPacketDropping 	0
scalar IDSforWSN.node[9].nic.ids 	neigh197PackRec 	33
scalar IDSforWSN.node[9].nic.ids 	neigh197PackFwd 	25
scalar IDSforWSN.node[9].nic.ids 	neigh197DropLoc 	0
scalar IDSforWSN.node[9].nic.ids 	neigh197DropGlob 	0
scalar IDSforWSN.node[9].nic.ids 	neigh197DelayLoc 	1
scalar IDSforWSN.node[9].nic.ids 	neigh197DelayGlob 	0
scalar IDSforWSN.node[9].nic.ids 	neighbour197IntentionalPacketDropping 	0
scalar IDSforWSN.node[9].nic.ids 	neigh206PackRec 	50
scalar IDSforWSN.node[9].nic.ids 	neigh206PackFwd 	13
scalar IDSforWSN.node[9].nic.ids 	neigh206DropLoc 	0
scalar IDSforWSN.node[9].nic.ids 	neigh206DropGlob 	0
scalar IDSforWSN.node[9].nic.ids 	neigh206DelayLoc 	1
scalar IDSforWSN.node[9].nic.ids 	neigh206DelayGlob 	1
scalar IDSforWSN.node[9].nic.ids 	neighbour206IntentionalPacketDropping 	0
scalar IDSforWSN.node[9].nic.ids 	neigh224PackRec 	5
scalar IDSforWSN.node[9].nic.ids 	neigh224PackFwd 	4
scalar IDSforWSN.node[9].nic.ids 	neigh224DropLoc 	0
scalar IDSforWSN.node[9].nic.ids 	neigh224DropGlob 	0
scalar IDSforWSN.node[9].nic.ids 	neigh224DelayLoc 	1
scalar IDSforWSN.node[9].nic.ids 	neigh224DelayGlob 	0
scalar IDSforWSN.node[9].nic.ids 	neighbour224IntentionalPacketDropping 	0
scalar IDSforWSN.node[9].nic.ids 	neigh236PackRec 	81
scalar IDSforWSN.node[9].nic.ids 	neigh236PackFwd 	80
scalar IDSforWSN.node[9].nic.ids 	neigh236DropLoc 	0
scalar IDSforWSN.node[9].nic.ids 	neigh236DropGlob 	0
scalar IDSforWSN.node[9].nic.ids 	neigh236DelayLoc 	0
scalar IDSforWSN.node[9].nic.ids 	neigh236DelayGlob 	0
scalar IDSforWSN.node[9].nic.ids 	neighbour236IntentionalPacketDropping 	0
scalar IDSforWSN.node[9].nic.ids 	neigh239PackRec 	34
scalar IDSforWSN.node[9].nic.ids 	neigh239PackFwd 	16
scalar IDSforWSN.node[9].nic.ids 	neigh239DropLoc 	0
scalar IDSforWSN.node[9].nic.ids 	neigh239DropGlob 	0
scalar IDSforWSN.node[9].nic.ids 	neigh239DelayLoc 	1
scalar IDSforWSN.node[9].nic.ids 	neigh239DelayGlob 	1
scalar IDSforWSN.node[9].nic.ids 	neighbour239IntentionalPacketDropping 	0
scalar IDSforWSN.node[9].nic.ids 	neigh241PackRec 	103
scalar IDSforWSN.node[9].nic.ids 	neigh241PackFwd 	101
scalar IDSforWSN.node[9].nic.ids 	neigh241DropLoc 	0
scalar IDSforWSN.node[9].nic.ids 	neigh241DropGlob 	0
scalar IDSforWSN.node[9].nic.ids 	neigh241DelayLoc 	0
scalar IDSforWSN.node[9].nic.ids 	neigh241DelayGlob 	0
scalar IDSforWSN.node[9].nic.ids 	neighbour241IntentionalPacketDropping 	0
scalar IDSforWSN.node[9].nic.ids 	neigh246PackRec 	2
scalar IDSforWSN.node[9].nic.ids 	neigh246PackFwd 	0
scalar IDSforWSN.node[9].nic.ids 	neigh246DropLoc 	0
scalar IDSforWSN.node[9].nic.ids 	neigh246DropGlob 	0
scalar IDSforWSN.node[9].nic.ids 	neigh246DelayLoc 	1
scalar IDSforWSN.node[9].nic.ids 	neigh246DelayGlob 	0
scalar IDSforWSN.node[9].nic.ids 	neighbour246IntentionalPacketDropping 	0
scalar IDSforWSN.node[9].nic.ids 	Neigbors_forwardersMap 	17
scalar IDSforWSN.node[9].nic.ids 	Neighbors_neighborsSet 	39
scalar IDSforWSN.node[9].nic.ids 	data_packets_intercepted 	873
scalar IDSforWSN.node[9].nic.ids 	data_packets_me_to_somebody 	18
scalar IDSforWSN.node[9].nic.ids 	data_packets_somebody_to_me 	13
scalar IDSforWSN.node[9].nic.ids 	data_packets_somebody_to_somebody 	842
scalar IDSforWSN.node[10].nic.ids 	neigh18PackRec 	52
scalar IDSforWSN.node[10].nic.ids 	neigh18PackFwd 	52
scalar IDSforWSN.node[10].nic.ids 	neigh18DropLoc 	0
scalar IDSforWSN.node[10].nic.ids 	neigh18DropGlob 	0
scalar IDSforWSN.node[10].nic.ids 	neigh18DelayLoc 	0
scalar IDSforWSN.node[10].nic.ids 	neigh18DelayGlob 	0
scalar IDSforWSN.node[10].nic.ids 	neighbour18IntentionalPacketDropping 	0
scalar IDSforWSN.node[10].nic.ids 	neigh20PackRec 	84
scalar IDSforWSN.node[10].nic.ids 	neigh20PackFwd 	63
scalar IDSforWSN.node[10].nic.ids 	neigh20DropLoc 	0
scalar IDSforWSN.node[10].nic.ids 	neigh20DropGlob 	0
scalar IDSforWSN.node[10].nic.ids 	neigh20DelayLoc 	1
scalar IDSforWSN.node[10].nic.ids 	neigh20DelayGlob 	1
scalar IDSforWSN.node[10].nic.ids 	neighbour20IntentionalPacketDropping 	0
scalar IDSforWSN.node[10].nic.ids 	neigh32PackRec 	8
scalar IDSforWSN.node[10].nic.ids 	neigh32PackFwd 	4
scalar IDSforWSN.node[10].nic.ids 	neigh32DropLoc 	0
scalar IDSforWSN.node[10].nic.ids 	neigh32DropGlob 	0
scalar IDSforWSN.node[10].nic.ids 	neigh32DelayLoc 	1
scalar IDSforWSN.node[10].nic.ids 	neigh32DelayGlob 	0
scalar IDSforWSN.node[10].nic.ids 	neighbour32IntentionalPacketDropping 	0
scalar IDSforWSN.node[10].nic.ids 	neigh82PackRec 	19
scalar IDSforWSN.node[10].nic.ids 	neigh82PackFwd 	2
scalar IDSforWSN.node[10].nic.ids 	neigh82DropLoc 	0
scalar IDSforWSN.node[10].nic.ids 	neigh82DropGlob 	0
scalar IDSforWSN.node[10].nic.ids 	neigh82DelayLoc 	1
scalar IDSforWSN.node[10].nic.ids 	neigh82DelayGlob 	1
scalar IDSforWSN.node[10].nic.ids 	neighbour82IntentionalPacketDropping 	0
scalar IDSforWSN.node[10].nic.ids 	neigh87PackRec 	107
scalar IDSforWSN.node[10].nic.ids 	neigh87PackFwd 	15
scalar IDSforWSN.node[10].nic.ids 	neigh87DropLoc 	0
scalar IDSforWSN.node[10].nic.ids 	neigh87DropGlob 	0
scalar IDSforWSN.node[10].nic.ids 	neigh87DelayLoc 	1
scalar IDSforWSN.node[10].nic.ids 	neigh87DelayGlob 	1
scalar IDSforWSN.node[10].nic.ids 	neighbour87IntentionalPacketDropping 	0
scalar IDSforWSN.node[10].nic.ids 	neigh88PackRec 	5
scalar IDSforWSN.node[10].nic.ids 	neigh88PackFwd 	5
scalar IDSforWSN.node[10].nic.ids 	neigh88DropLoc 	0
scalar IDSforWSN.node[10].nic.ids 	neigh88DropGlob 	0
scalar IDSforWSN.node[10].nic.ids 	neigh88DelayLoc 	0
scalar IDSforWSN.node[10].nic.ids 	neigh88DelayGlob 	0
scalar IDSforWSN.node[10].nic.ids 	neighbour88IntentionalPacketDropping 	0
scalar IDSforWSN.node[10].nic.ids 	neigh90PackRec 	8
scalar IDSforWSN.node[10].nic.ids 	neigh90PackFwd 	0
scalar IDSforWSN.node[10].nic.ids 	neigh90DropLoc 	0
scalar IDSforWSN.node[10].nic.ids 	neigh90DropGlob 	0
scalar IDSforWSN.node[10].nic.ids 	neigh90DelayLoc 	1
scalar IDSforWSN.node[10].nic.ids 	neigh90DelayGlob 	1
scalar IDSforWSN.node[10].nic.ids 	neighbour90IntentionalPacketDropping 	0
scalar IDSforWSN.node[10].nic.ids 	neigh105PackRec 	3
scalar IDSforWSN.node[10].nic.ids 	neigh105PackFwd 	0
scalar IDSforWSN.node[10].nic.ids 	neigh105DropLoc 	0
scalar IDSforWSN.node[10].nic.ids 	neigh105DropGlob 	0
scalar IDSforWSN.node[10].nic.ids 	neigh105DelayLoc 	1
scalar IDSforWSN.node[10].nic.ids 	neigh105DelayGlob 	1
scalar IDSforWSN.node[10].nic.ids 	neighbour105IntentionalPacketDropping 	0
scalar IDSforWSN.node[10].nic.ids 	neigh106PackRec 	14
scalar IDSforWSN.node[10].nic.ids 	neigh106PackFwd 	12
scalar IDSforWSN.node[10].nic.ids 	neigh106DropLoc 	0
scalar IDSforWSN.node[10].nic.ids 	neigh106DropGlob 	0
scalar IDSforWSN.node[10].nic.ids 	neigh106DelayLoc 	1
scalar IDSforWSN.node[10].nic.ids 	neigh106DelayGlob 	0
scalar IDSforWSN.node[10].nic.ids 	neighbour106IntentionalPacketDropping 	0
scalar IDSforWSN.node[10].nic.ids 	neigh108PackRec 	13
scalar IDSforWSN.node[10].nic.ids 	neigh108PackFwd 	0
scalar IDSforWSN.node[10].nic.ids 	neigh108DropLoc 	0
scalar IDSforWSN.node[10].nic.ids 	neigh108DropGlob 	0
scalar IDSforWSN.node[10].nic.ids 	neigh108DelayLoc 	1
scalar IDSforWSN.node[10].nic.ids 	neigh108DelayGlob 	1
scalar IDSforWSN.node[10].nic.ids 	neighbour108IntentionalPacketDropping 	0
scalar IDSforWSN.node[10].nic.ids 	neigh148PackRec 	19
scalar IDSforWSN.node[10].nic.ids 	neigh148PackFwd 	18
scalar IDSforWSN.node[10].nic.ids 	neigh148DropLoc 	0
scalar IDSforWSN.node[10].nic.ids 	neigh148DropGlob 	0
scalar IDSforWSN.node[10].nic.ids 	neigh148DelayLoc 	0
scalar IDSforWSN.node[10].nic.ids 	neigh148DelayGlob 	0
scalar IDSforWSN.node[10].nic.ids 	neighbour148IntentionalPacketDropping 	0
scalar IDSforWSN.node[10].nic.ids 	neigh185PackRec 	10
scalar IDSforWSN.node[10].nic.ids 	neigh185PackFwd 	3
scalar IDSforWSN.node[10].nic.ids 	neigh185DropLoc 	0
scalar IDSforWSN.node[10].nic.ids 	neigh185DropGlob 	0
scalar IDSforWSN.node[10].nic.ids 	neigh185DelayLoc 	1
scalar IDSforWSN.node[10].nic.ids 	neigh185DelayGlob 	1
scalar IDSforWSN.node[10].nic.ids 	neighbour185IntentionalPacketDropping 	0
scalar IDSforWSN.node[10].nic.ids 	neigh190PackRec 	29
scalar IDSforWSN.node[10].nic.ids 	neigh190PackFwd 	29
scalar IDSforWSN.node[10].nic.ids 	neigh190DropLoc 	0
scalar IDSforWSN.node[10].nic.ids 	neigh190DropGlob 	0
scalar IDSforWSN.node[10].nic.ids 	neigh190DelayLoc 	0
scalar IDSforWSN.node[10].nic.ids 	neigh190DelayGlob 	0
scalar IDSforWSN.node[10].nic.ids 	neighbour190IntentionalPacketDropping 	0
scalar IDSforWSN.node[10].nic.ids 	neigh198PackRec 	3
scalar IDSforWSN.node[10].nic.ids 	neigh198PackFwd 	1
scalar IDSforWSN.node[10].nic.ids 	neigh198DropLoc 	0
scalar IDSforWSN.node[10].nic.ids 	neigh198DropGlob 	0
scalar IDSforWSN.node[10].nic.ids 	neigh198DelayLoc 	1
scalar IDSforWSN.node[10].nic.ids 	neigh198DelayGlob 	0
scalar IDSforWSN.node[10].nic.ids 	neighbour198IntentionalPacketDropping 	0
scalar IDSforWSN.node[10].nic.ids 	neigh205PackRec 	6
scalar IDSforWSN.node[10].nic.ids 	neigh205PackFwd 	1
scalar IDSforWSN.node[10].nic.ids 	neigh205DropLoc 	0
scalar IDSforWSN.node[10].nic.ids 	neigh205DropGlob 	0
scalar IDSforWSN.node[10].nic.ids 	neigh205DelayLoc 	1
scalar IDSforWSN.node[10].nic.ids 	neigh205DelayGlob 	1
scalar IDSforWSN.node[10].nic.ids 	neighbour205IntentionalPacketDropping 	0
scalar IDSforWSN.node[10].nic.ids 	neigh226PackRec 	5
scalar IDSforWSN.node[10].nic.ids 	neigh226PackFwd 	5
scalar IDSforWSN.node[10].nic.ids 	neigh226DropLoc 	0
scalar IDSforWSN.node[10].nic.ids 	neigh226DropGlob 	0
scalar IDSforWSN.node[10].nic.ids 	neigh226DelayLoc 	0
scalar IDSforWSN.node[10].nic.ids 	neigh226DelayGlob 	0
scalar IDSforWSN.node[10].nic.ids 	neighbour226IntentionalPacketDropping 	0
scalar IDSforWSN.node[10].nic.ids 	neigh235PackRec 	4
scalar IDSforWSN.node[10].nic.ids 	neigh235PackFwd 	4
scalar IDSforWSN.node[10].nic.ids 	neigh235DropLoc 	0
scalar IDSforWSN.node[10].nic.ids 	neigh235DropGlob 	0
scalar IDSforWSN.node[10].nic.ids 	neigh235DelayLoc 	0
scalar IDSforWSN.node[10].nic.ids 	neigh235DelayGlob 	0
scalar IDSforWSN.node[10].nic.ids 	neighbour235IntentionalPacketDropping 	0
scalar IDSforWSN.node[10].nic.ids 	Neigbors_forwardersMap 	17
scalar IDSforWSN.node[10].nic.ids 	Neighbors_neighborsSet 	33
scalar IDSforWSN.node[10].nic.ids 	data_packets_intercepted 	447
scalar IDSforWSN.node[10].nic.ids 	data_packets_me_to_somebody 	5
scalar IDSforWSN.node[10].nic.ids 	data_packets_somebody_to_me 	0
scalar IDSforWSN.node[10].nic.ids 	data_packets_somebody_to_somebody 	442
scalar IDSforWSN.node[11].nic.ids 	neigh32PackRec 	7
scalar IDSforWSN.node[11].nic.ids 	neigh32PackFwd 	1
scalar IDSforWSN.node[11].nic.ids 	neigh32DropLoc 	0
scalar IDSforWSN.node[11].nic.ids 	neigh32DropGlob 	0
scalar IDSforWSN.node[11].nic.ids 	neigh32DelayLoc 	1
scalar IDSforWSN.node[11].nic.ids 	neigh32DelayGlob 	0
scalar IDSforWSN.node[11].nic.ids 	neighbour32IntentionalPacketDropping 	0
scalar IDSforWSN.node[11].nic.ids 	neigh76PackRec 	68
scalar IDSforWSN.node[11].nic.ids 	neigh76PackFwd 	63
scalar IDSforWSN.node[11].nic.ids 	neigh76DropLoc 	0
scalar IDSforWSN.node[11].nic.ids 	neigh76DropGlob 	0
scalar IDSforWSN.node[11].nic.ids 	neigh76DelayLoc 	0
scalar IDSforWSN.node[11].nic.ids 	neigh76DelayGlob 	0
scalar IDSforWSN.node[11].nic.ids 	neighbour76IntentionalPacketDropping 	0
scalar IDSforWSN.node[11].nic.ids 	neigh78PackRec 	2
scalar IDSforWSN.node[11].nic.ids 	neigh78PackFwd 	1
scalar IDSforWSN.node[11].nic.ids 	neigh78DropLoc 	0
scalar IDSforWSN.node[11].nic.ids 	neigh78DropGlob 	0
scalar IDSforWSN.node[11].nic.ids 	neigh78DelayLoc 	1
scalar IDSforWSN.node[11].nic.ids 	neigh78DelayGlob 	0
scalar IDSforWSN.node[11].nic.ids 	neighbour78IntentionalPacketDropping 	0
scalar IDSforWSN.node[11].nic.ids 	neigh80PackRec 	3
scalar IDSforWSN.node[11].nic.ids 	neigh80PackFwd 	0
scalar IDSforWSN.node[11].nic.ids 	neigh80DropLoc 	0
scalar IDSforWSN.node[11].nic.ids 	neigh80DropGlob 	0
scalar IDSforWSN.node[11].nic.ids 	neigh80DelayLoc 	1
scalar IDSforWSN.node[11].nic.ids 	neigh80DelayGlob 	0
scalar IDSforWSN.node[11].nic.ids 	neighbour80IntentionalPacketDropping 	0
scalar IDSforWSN.node[11].nic.ids 	neigh82PackRec 	25
scalar IDSforWSN.node[11].nic.ids 	neigh82PackFwd 	3
scalar IDSforWSN.node[11].nic.ids 	neigh82DropLoc 	0
scalar IDSforWSN.node[11].nic.ids 	neigh82DropGlob 	0
scalar IDSforWSN.node[11].nic.ids 	neigh82DelayLoc 	1
scalar IDSforWSN.node[11].nic.ids 	neigh82DelayGlob 	1
scalar IDSforWSN.node[11].nic.ids 	neighbour82IntentionalPacketDropping 	0
scalar IDSforWSN.node[11].nic.ids 	neigh87PackRec 	14
scalar IDSforWSN.node[11].nic.ids 	neigh87PackFwd 	0
scalar IDSforWSN.node[11].nic.ids 	neigh87DropLoc 	0
scalar IDSforWSN.node[11].nic.ids 	neigh87DropGlob 	0
scalar IDSforWSN.node[11].nic.ids 	neigh87DelayLoc 	1
scalar IDSforWSN.node[11].nic.ids 	neigh87DelayGlob 	1
scalar IDSforWSN.node[11].nic.ids 	neighbour87IntentionalPacketDropping 	0
scalar IDSforWSN.node[11].nic.ids 	neigh90PackRec 	112
scalar IDSforWSN.node[11].nic.ids 	neigh90PackFwd 	41
scalar IDSforWSN.node[11].nic.ids 	neigh90DropLoc 	0
scalar IDSforWSN.node[11].nic.ids 	neigh90DropGlob 	0
scalar IDSforWSN.node[11].nic.ids 	neigh90DelayLoc 	1
scalar IDSforWSN.node[11].nic.ids 	neigh90DelayGlob 	1
scalar IDSforWSN.node[11].nic.ids 	neighbour90IntentionalPacketDropping 	0
scalar IDSforWSN.node[11].nic.ids 	neigh105PackRec 	35
scalar IDSforWSN.node[11].nic.ids 	neigh105PackFwd 	34
scalar IDSforWSN.node[11].nic.ids 	neigh105DropLoc 	0
scalar IDSforWSN.node[11].nic.ids 	neigh105DropGlob 	0
scalar IDSforWSN.node[11].nic.ids 	neigh105DelayLoc 	0
scalar IDSforWSN.node[11].nic.ids 	neigh105DelayGlob 	0
scalar IDSforWSN.node[11].nic.ids 	neighbour105IntentionalPacketDropping 	0
scalar IDSforWSN.node[11].nic.ids 	neigh106PackRec 	19
scalar IDSforWSN.node[11].nic.ids 	neigh106PackFwd 	19
scalar IDSforWSN.node[11].nic.ids 	neigh106DropLoc 	0
scalar IDSforWSN.node[11].nic.ids 	neigh106DropGlob 	0
scalar IDSforWSN.node[11].nic.ids 	neigh106DelayLoc 	0
scalar IDSforWSN.node[11].nic.ids 	neigh106DelayGlob 	0
scalar IDSforWSN.node[11].nic.ids 	neighbour106IntentionalPacketDropping 	0
scalar IDSforWSN.node[11].nic.ids 	neigh117PackRec 	4
scalar IDSforWSN.node[11].nic.ids 	neigh117PackFwd 	4
scalar IDSforWSN.node[11].nic.ids 	neigh117DropLoc 	0
scalar IDSforWSN.node[11].nic.ids 	neigh117DropGlob 	0
scalar IDSforWSN.node[11].nic.ids 	neigh117DelayLoc 	0
scalar IDSforWSN.node[11].nic.ids 	neigh117DelayGlob 	0
scalar IDSforWSN.node[11].nic.ids 	neighbour117IntentionalPacketDropping 	0
scalar IDSforWSN.node[11].nic.ids 	neigh167PackRec 	1
scalar IDSforWSN.node[11].nic.ids 	neigh167PackFwd 	1
scalar IDSforWSN.node[11].nic.ids 	neigh167DropLoc 	0
scalar IDSforWSN.node[11].nic.ids 	neigh167DropGlob 	0
scalar IDSforWSN.node[11].nic.ids 	neigh167DelayLoc 	0
scalar IDSforWSN.node[11].nic.ids 	neigh167DelayGlob 	0
scalar IDSforWSN.node[11].nic.ids 	neighbour167IntentionalPacketDropping 	0
scalar IDSforWSN.node[11].nic.ids 	neigh174PackRec 	4
scalar IDSforWSN.node[11].nic.ids 	neigh174PackFwd 	4
scalar IDSforWSN.node[11].nic.ids 	neigh174DropLoc 	0
scalar IDSforWSN.node[11].nic.ids 	neigh174DropGlob 	0
scalar IDSforWSN.node[11].nic.ids 	neigh174DelayLoc 	0
scalar IDSforWSN.node[11].nic.ids 	neigh174DelayGlob 	0
scalar IDSforWSN.node[11].nic.ids 	neighbour174IntentionalPacketDropping 	0
scalar IDSforWSN.node[11].nic.ids 	neigh176PackRec 	33
scalar IDSforWSN.node[11].nic.ids 	neigh176PackFwd 	33
scalar IDSforWSN.node[11].nic.ids 	neigh176DropLoc 	0
scalar IDSforWSN.node[11].nic.ids 	neigh176DropGlob 	0
scalar IDSforWSN.node[11].nic.ids 	neigh176DelayLoc 	1
scalar IDSforWSN.node[11].nic.ids 	neigh176DelayGlob 	1
scalar IDSforWSN.node[11].nic.ids 	neighbour176IntentionalPacketDropping 	0
scalar IDSforWSN.node[11].nic.ids 	neigh185PackRec 	9
scalar IDSforWSN.node[11].nic.ids 	neigh185PackFwd 	2
scalar IDSforWSN.node[11].nic.ids 	neigh185DropLoc 	0
scalar IDSforWSN.node[11].nic.ids 	neigh185DropGlob 	0
scalar IDSforWSN.node[11].nic.ids 	neigh185DelayLoc 	1
scalar IDSforWSN.node[11].nic.ids 	neigh185DelayGlob 	1
scalar IDSforWSN.node[11].nic.ids 	neighbour185IntentionalPacketDropping 	0
scalar IDSforWSN.node[11].nic.ids 	neigh190PackRec 	2
scalar IDSforWSN.node[11].nic.ids 	neigh190PackFwd 	0
scalar IDSforWSN.node[11].nic.ids 	neigh190DropLoc 	0
scalar IDSforWSN.node[11].nic.ids 	neigh190DropGlob 	0
scalar IDSforWSN.node[11].nic.ids 	neigh190DelayLoc 	1
scalar IDSforWSN.node[11].nic.ids 	neigh190DelayGlob 	1
scalar IDSforWSN.node[11].nic.ids 	neighbour190IntentionalPacketDropping 	0
scalar IDSforWSN.node[11].nic.ids 	neigh198PackRec 	3
scalar IDSforWSN.node[11].nic.ids 	neigh198PackFwd 	3
scalar IDSforWSN.node[11].nic.ids 	neigh198DropLoc 	0
scalar IDSforWSN.node[11].nic.ids 	neigh198DropGlob 	0
scalar IDSforWSN.node[11].nic.ids 	neigh198DelayLoc 	0
scalar IDSforWSN.node[11].nic.ids 	neigh198DelayGlob 	0
scalar IDSforWSN.node[11].nic.ids 	neighbour198IntentionalPacketDropping 	0
scalar IDSforWSN.node[11].nic.ids 	neigh201PackRec 	3
scalar IDSforWSN.node[11].nic.ids 	neigh201PackFwd 	3
scalar IDSforWSN.node[11].nic.ids 	neigh201DropLoc 	0
scalar IDSforWSN.node[11].nic.ids 	neigh201DropGlob 	0
scalar IDSforWSN.node[11].nic.ids 	neigh201DelayLoc 	0
scalar IDSforWSN.node[11].nic.ids 	neigh201DelayGlob 	0
scalar IDSforWSN.node[11].nic.ids 	neighbour201IntentionalPacketDropping 	0
scalar IDSforWSN.node[11].nic.ids 	Neigbors_forwardersMap 	17
scalar IDSforWSN.node[11].nic.ids 	Neighbors_neighborsSet 	42
scalar IDSforWSN.node[11].nic.ids 	data_packets_intercepted 	451
scalar IDSforWSN.node[11].nic.ids 	data_packets_me_to_somebody 	5
scalar IDSforWSN.node[11].nic.ids 	data_packets_somebody_to_me 	0
scalar IDSforWSN.node[11].nic.ids 	data_packets_somebody_to_somebody 	446
scalar IDSforWSN.node[12].nic.ids 	neigh9PackRec 	4
scalar IDSforWSN.node[12].nic.ids 	neigh9PackFwd 	3
scalar IDSforWSN.node[12].nic.ids 	neigh9DropLoc 	0
scalar IDSforWSN.node[12].nic.ids 	neigh9DropGlob 	0
scalar IDSforWSN.node[12].nic.ids 	neigh9DelayLoc 	0
scalar IDSforWSN.node[12].nic.ids 	neigh9DelayGlob 	0
scalar IDSforWSN.node[12].nic.ids 	neighbour9IntentionalPacketDropping 	0
scalar IDSforWSN.node[12].nic.ids 	neigh46PackRec 	6
scalar IDSforWSN.node[12].nic.ids 	neigh46PackFwd 	6
scalar IDSforWSN.node[12].nic.ids 	neigh46DropLoc 	0
scalar IDSforWSN.node[12].nic.ids 	neigh46DropGlob 	0
scalar IDSforWSN.node[12].nic.ids 	neigh46DelayLoc 	0
scalar IDSforWSN.node[12].nic.ids 	neigh46DelayGlob 	0
scalar IDSforWSN.node[12].nic.ids 	neighbour46IntentionalPacketDropping 	0
scalar IDSforWSN.node[12].nic.ids 	neigh49PackRec 	1
scalar IDSforWSN.node[12].nic.ids 	neigh49PackFwd 	1
scalar IDSforWSN.node[12].nic.ids 	neigh49DropLoc 	0
scalar IDSforWSN.node[12].nic.ids 	neigh49DropGlob 	0
scalar IDSforWSN.node[12].nic.ids 	neigh49DelayLoc 	0
scalar IDSforWSN.node[12].nic.ids 	neigh49DelayGlob 	0
scalar IDSforWSN.node[12].nic.ids 	neighbour49IntentionalPacketDropping 	0
scalar IDSforWSN.node[12].nic.ids 	neigh59PackRec 	8
scalar IDSforWSN.node[12].nic.ids 	neigh59PackFwd 	5
scalar IDSforWSN.node[12].nic.ids 	neigh59DropLoc 	0
scalar IDSforWSN.node[12].nic.ids 	neigh59DropGlob 	0
scalar IDSforWSN.node[12].nic.ids 	neigh59DelayLoc 	1
scalar IDSforWSN.node[12].nic.ids 	neigh59DelayGlob 	0
scalar IDSforWSN.node[12].nic.ids 	neighbour59IntentionalPacketDropping 	0
scalar IDSforWSN.node[12].nic.ids 	neigh93PackRec 	3
scalar IDSforWSN.node[12].nic.ids 	neigh93PackFwd 	1
scalar IDSforWSN.node[12].nic.ids 	neigh93DropLoc 	0
scalar IDSforWSN.node[12].nic.ids 	neigh93DropGlob 	0
scalar IDSforWSN.node[12].nic.ids 	neigh93DelayLoc 	1
scalar IDSforWSN.node[12].nic.ids 	neigh93DelayGlob 	1
scalar IDSforWSN.node[12].nic.ids 	neighbour93IntentionalPacketDropping 	0
scalar IDSforWSN.node[12].nic.ids 	neigh116PackRec 	129
scalar IDSforWSN.node[12].nic.ids 	neigh116PackFwd 	75
scalar IDSforWSN.node[12].nic.ids 	neigh116DropLoc 	0
scalar IDSforWSN.node[12].nic.ids 	neigh116DropGlob 	0
scalar IDSforWSN.node[12].nic.ids 	neigh116DelayLoc 	1
scalar IDSforWSN.node[12].nic.ids 	neigh116DelayGlob 	1
scalar IDSforWSN.node[12].nic.ids 	neighbour116IntentionalPacketDropping 	0
scalar IDSforWSN.node[12].nic.ids 	neigh122PackRec 	30
scalar IDSforWSN.node[12].nic.ids 	neigh122PackFwd 	22
scalar IDSforWSN.node[12].nic.ids 	neigh122DropLoc 	0
scalar IDSforWSN.node[12].nic.ids 	neigh122DropGlob 	0
scalar IDSforWSN.node[12].nic.ids 	neigh122DelayLoc 	1
scalar IDSforWSN.node[12].nic.ids 	neigh122DelayGlob 	1
scalar IDSforWSN.node[12].nic.ids 	neighbour122IntentionalPacketDropping 	0
scalar IDSforWSN.node[12].nic.ids 	neigh136PackRec 	3
scalar IDSforWSN.node[12].nic.ids 	neigh136PackFwd 	2
scalar IDSforWSN.node[12].nic.ids 	neigh136DropLoc 	0
scalar IDSforWSN.node[12].nic.ids 	neigh136DropGlob 	0
scalar IDSforWSN.node[12].nic.ids 	neigh136DelayLoc 	1
scalar IDSforWSN.node[12].nic.ids 	neigh136DelayGlob 	0
scalar IDSforWSN.node[12].nic.ids 	neighbour136IntentionalPacketDropping 	0
scalar IDSforWSN.node[12].nic.ids 	neigh163PackRec 	4
scalar IDSforWSN.node[12].nic.ids 	neigh163PackFwd 	0
scalar IDSforWSN.node[12].nic.ids 	neigh163DropLoc 	0
scalar IDSforWSN.node[12].nic.ids 	neigh163DropGlob 	0
scalar IDSforWSN.node[12].nic.ids 	neigh163DelayLoc 	1
scalar IDSforWSN.node[12].nic.ids 	neigh163DelayGlob 	0
scalar IDSforWSN.node[12].nic.ids 	neighbour163IntentionalPacketDropping 	0
scalar IDSforWSN.node[12].nic.ids 	neigh182PackRec 	13
scalar IDSforWSN.node[12].nic.ids 	neigh182PackFwd 	12
scalar IDSforWSN.node[12].nic.ids 	neigh182DropLoc 	0
scalar IDSforWSN.node[12].nic.ids 	neigh182DropGlob 	0
scalar IDSforWSN.node[12].nic.ids 	neigh182DelayLoc 	1
scalar IDSforWSN.node[12].nic.ids 	neigh182DelayGlob 	0
scalar IDSforWSN.node[12].nic.ids 	neighbour182IntentionalPacketDropping 	0
scalar IDSforWSN.node[12].nic.ids 	neigh186PackRec 	32
scalar IDSforWSN.node[12].nic.ids 	neigh186PackFwd 	31
scalar IDSforWSN.node[12].nic.ids 	neigh186DropLoc 	0
scalar IDSforWSN.node[12].nic.ids 	neigh186DropGlob 	0
scalar IDSforWSN.node[12].nic.ids 	neigh186DelayLoc 	0
scalar IDSforWSN.node[12].nic.ids 	neigh186DelayGlob 	0
scalar IDSforWSN.node[12].nic.ids 	neighbour186IntentionalPacketDropping 	0
scalar IDSforWSN.node[12].nic.ids 	neigh206PackRec 	191
scalar IDSforWSN.node[12].nic.ids 	neigh206PackFwd 	101
scalar IDSforWSN.node[12].nic.ids 	neigh206DropLoc 	0
scalar IDSforWSN.node[12].nic.ids 	neigh206DropGlob 	0
scalar IDSforWSN.node[12].nic.ids 	neigh206DelayLoc 	1
scalar IDSforWSN.node[12].nic.ids 	neigh206DelayGlob 	1
scalar IDSforWSN.node[12].nic.ids 	neighbour206IntentionalPacketDropping 	0
scalar IDSforWSN.node[12].nic.ids 	neigh224PackRec 	1
scalar IDSforWSN.node[12].nic.ids 	neigh224PackFwd 	0
scalar IDSforWSN.node[12].nic.ids 	neigh224DropLoc 	0
scalar IDSforWSN.node[12].nic.ids 	neigh224DropGlob 	0
scalar IDSforWSN.node[12].nic.ids 	neigh224DelayLoc 	1
scalar IDSforWSN.node[12].nic.ids 	neigh224DelayGlob 	0
scalar IDSforWSN.node[12].nic.ids 	neighbour224IntentionalPacketDropping 	0
scalar IDSforWSN.node[12].nic.ids 	neigh236PackRec 	17
scalar IDSforWSN.node[12].nic.ids 	neigh236PackFwd 	13
scalar IDSforWSN.node[12].nic.ids 	neigh236DropLoc 	0
scalar IDSforWSN.node[12].nic.ids 	neigh236DropGlob 	0
scalar IDSforWSN.node[12].nic.ids 	neigh236DelayLoc 	1
scalar IDSforWSN.node[12].nic.ids 	neigh236DelayGlob 	0
scalar IDSforWSN.node[12].nic.ids 	neighbour236IntentionalPacketDropping 	0
scalar IDSforWSN.node[12].nic.ids 	neigh239PackRec 	82
scalar IDSforWSN.node[12].nic.ids 	neigh239PackFwd 	80
scalar IDSforWSN.node[12].nic.ids 	neigh239DropLoc 	0
scalar IDSforWSN.node[12].nic.ids 	neigh239DropGlob 	0
scalar IDSforWSN.node[12].nic.ids 	neigh239DelayLoc 	0
scalar IDSforWSN.node[12].nic.ids 	neigh239DelayGlob 	0
scalar IDSforWSN.node[12].nic.ids 	neighbour239IntentionalPacketDropping 	0
scalar IDSforWSN.node[12].nic.ids 	neigh241PackRec 	74
scalar IDSforWSN.node[12].nic.ids 	neigh241PackFwd 	65
scalar IDSforWSN.node[12].nic.ids 	neigh241DropLoc 	0
scalar IDSforWSN.node[12].nic.ids 	neigh241DropGlob 	0
scalar IDSforWSN.node[12].nic.ids 	neigh241DelayLoc 	1
scalar IDSforWSN.node[12].nic.ids 	neigh241DelayGlob 	1
scalar IDSforWSN.node[12].nic.ids 	neighbour241IntentionalPacketDropping 	0
scalar IDSforWSN.node[12].nic.ids 	neigh246PackRec 	8
scalar IDSforWSN.node[12].nic.ids 	neigh246PackFwd 	7
scalar IDSforWSN.node[12].nic.ids 	neigh246DropLoc 	0
scalar IDSforWSN.node[12].nic.ids 	neigh246DropGlob 	0
scalar IDSforWSN.node[12].nic.ids 	neigh246DelayLoc 	0
scalar IDSforWSN.node[12].nic.ids 	neigh246DelayGlob 	0
scalar IDSforWSN.node[12].nic.ids 	neighbour246IntentionalPacketDropping 	0
scalar IDSforWSN.node[12].nic.ids 	Neigbors_forwardersMap 	17
scalar IDSforWSN.node[12].nic.ids 	Neighbors_neighborsSet 	33
scalar IDSforWSN.node[12].nic.ids 	data_packets_intercepted 	853
scalar IDSforWSN.node[12].nic.ids 	data_packets_me_to_somebody 	5
scalar IDSforWSN.node[12].nic.ids 	data_packets_somebody_to_me 	0
scalar IDSforWSN.node[12].nic.ids 	data_packets_somebody_to_somebody 	848
scalar IDSforWSN.node[13].nic.ids 	neigh3PackRec 	1
scalar IDSforWSN.node[13].nic.ids 	neigh3PackFwd 	0
scalar IDSforWSN.node[13].nic.ids 	neigh3DropLoc 	0
scalar IDSforWSN.node[13].nic.ids 	neigh3DropGlob 	0
scalar IDSforWSN.node[13].nic.ids 	neigh3DelayLoc 	1
scalar IDSforWSN.node[13].nic.ids 	neigh3DelayGlob 	0
scalar IDSforWSN.node[13].nic.ids 	neighbour3IntentionalPacketDropping 	0
scalar IDSforWSN.node[13].nic.ids 	neigh6PackRec 	14
scalar IDSforWSN.node[13].nic.ids 	neigh6PackFwd 	14
scalar IDSforWSN.node[13].nic.ids 	neigh6DropLoc 	0
scalar IDSforWSN.node[13].nic.ids 	neigh6DropGlob 	0
scalar IDSforWSN.node[13].nic.ids 	neigh6DelayLoc 	0
scalar IDSforWSN.node[13].nic.ids 	neigh6DelayGlob 	0
scalar IDSforWSN.node[13].nic.ids 	neighbour6IntentionalPacketDropping 	0
scalar IDSforWSN.node[13].nic.ids 	neigh9PackRec 	7
scalar IDSforWSN.node[13].nic.ids 	neigh9PackFwd 	0
scalar IDSforWSN.node[13].nic.ids 	neigh9DropLoc 	0
scalar IDSforWSN.node[13].nic.ids 	neigh9DropGlob 	0
scalar IDSforWSN.node[13].nic.ids 	neigh9DelayLoc 	1
scalar IDSforWSN.node[13].nic.ids 	neigh9DelayGlob 	1
scalar IDSforWSN.node[13].nic.ids 	neighbour9IntentionalPacketDropping 	0
scalar IDSforWSN.node[13].nic.ids 	neigh15PackRec 	2
scalar IDSforWSN.node[13].nic.ids 	neigh15PackFwd 	0
scalar IDSforWSN.node[13].nic.ids 	neigh15DropLoc 	0
scalar IDSforWSN.node[13].nic.ids 	neigh15DropGlob 	0
scalar IDSforWSN.node[13].nic.ids 	neigh15DelayLoc 	1
scalar IDSforWSN.node[13].nic.ids 	neigh15DelayGlob 	0
scalar IDSforWSN.node[13].nic.ids 	neighbour15IntentionalPacketDropping 	0
scalar IDSforWSN.node[13].nic.ids 	neigh28PackRec 	3
scalar IDSforWSN.node[13].nic.ids 	neigh28PackFwd 	0
scalar IDSforWSN.node[13].nic.ids 	neigh28DropLoc 	0
scalar IDSforWSN.node[13].nic.ids 	neigh28DropGlob 	0
scalar IDSforWSN.node[13].nic.ids 	neigh28DelayLoc 	1
scalar IDSforWSN.node[13].nic.ids 	neigh28DelayGlob 	0
scalar IDSforWSN.node[13].nic.ids 	neighbour28IntentionalPacketDropping 	0
scalar IDSforWSN.node[13].nic.ids 	neigh39PackRec 	2
scalar IDSforWSN.node[13].nic.ids 	neigh39PackFwd 	2
scalar IDSforWSN.node[13].nic.ids 	neigh39DropLoc 	0
scalar IDSforWSN.node[13].nic.ids 	neigh39DropGlob 	0
scalar IDSforWSN.node[13].nic.ids 	neigh39DelayLoc 	0
scalar IDSforWSN.node[13].nic.ids 	neigh39DelayGlob 	0
scalar IDSforWSN.node[13].nic.ids 	neighbour39IntentionalPacketDropping 	0
scalar IDSforWSN.node[13].nic.ids 	neigh57PackRec 	1
scalar IDSforWSN.node[13].nic.ids 	neigh57PackFwd 	1
scalar IDSforWSN.node[13].nic.ids 	neigh57DropLoc 	0
scalar IDSforWSN.node[13].nic.ids 	neigh57DropGlob 	0
scalar IDSforWSN.node[13].nic.ids 	neigh57DelayLoc 	0
scalar IDSforWSN.node[13].nic.ids 	neigh57DelayGlob 	0
scalar IDSforWSN.node[13].nic.ids 	neighbour57IntentionalPacketDropping 	0
scalar IDSforWSN.node[13].nic.ids 	neigh73PackRec 	36
scalar IDSforWSN.node[13].nic.ids 	neigh73PackFwd 	34
scalar IDSforWSN.node[13].nic.ids 	neigh73DropLoc 	0
scalar IDSforWSN.node[13].nic.ids 	neigh73DropGlob 	0
scalar IDSforWSN.node[13].nic.ids 	neigh73DelayLoc 	0
scalar IDSforWSN.node[13].nic.ids 	neigh73DelayGlob 	0
scalar IDSforWSN.node[13].nic.ids 	neighbour73IntentionalPacketDropping 	0
scalar IDSforWSN.node[13].nic.ids 	neigh81PackRec 	34
scalar IDSforWSN.node[13].nic.ids 	neigh81PackFwd 	34
scalar IDSforWSN.node[13].nic.ids 	neigh81DropLoc 	0
[...]
scalar IDSforWSN.node[248].nic.ids 	neigh80PackFwd 	2
scalar IDSforWSN.node[248].nic.ids 	neigh80DropLoc 	0
scalar IDSforWSN.node[248].nic.ids 	neigh80DropGlob 	0
scalar IDSforWSN.node[248].nic.ids 	neigh80DelayLoc 	1
scalar IDSforWSN.node[248].nic.ids 	neigh80DelayGlob 	0
scalar IDSforWSN.node[248].nic.ids 	neighbour80IntentionalPacketDropping 	0
scalar IDSforWSN.node[248].nic.ids 	neigh82PackRec 	1
scalar IDSforWSN.node[248].nic.ids 	neigh82PackFwd 	0
scalar IDSforWSN.node[248].nic.ids 	neigh82DropLoc 	0
scalar IDSforWSN.node[248].nic.ids 	neigh82DropGlob 	0
scalar IDSforWSN.node[248].nic.ids 	neigh82DelayLoc 	1
scalar IDSforWSN.node[248].nic.ids 	neigh82DelayGlob 	0
scalar IDSforWSN.node[248].nic.ids 	neighbour82IntentionalPacketDropping 	0
scalar IDSforWSN.node[248].nic.ids 	neigh90PackRec 	22
scalar IDSforWSN.node[248].nic.ids 	neigh90PackFwd 	0
scalar IDSforWSN.node[248].nic.ids 	neigh90DropLoc 	0
scalar IDSforWSN.node[248].nic.ids 	neigh90DropGlob 	0
scalar IDSforWSN.node[248].nic.ids 	neigh90DelayLoc 	1
scalar IDSforWSN.node[248].nic.ids 	neigh90DelayGlob 	1
scalar IDSforWSN.node[248].nic.ids 	neighbour90IntentionalPacketDropping 	0
scalar IDSforWSN.node[248].nic.ids 	neigh105PackRec 	2
scalar IDSforWSN.node[248].nic.ids 	neigh105PackFwd 	2
scalar IDSforWSN.node[248].nic.ids 	neigh105DropLoc 	0
scalar IDSforWSN.node[248].nic.ids 	neigh105DropGlob 	0
scalar IDSforWSN.node[248].nic.ids 	neigh105DelayLoc 	0
scalar IDSforWSN.node[248].nic.ids 	neigh105DelayGlob 	0
scalar IDSforWSN.node[248].nic.ids 	neighbour105IntentionalPacketDropping 	0
scalar IDSforWSN.node[248].nic.ids 	neigh108PackRec 	20
scalar IDSforWSN.node[248].nic.ids 	neigh108PackFwd 	1
scalar IDSforWSN.node[248].nic.ids 	neigh108DropLoc 	0
scalar IDSforWSN.node[248].nic.ids 	neigh108DropGlob 	0
scalar IDSforWSN.node[248].nic.ids 	neigh108DelayLoc 	1
scalar IDSforWSN.node[248].nic.ids 	neigh108DelayGlob 	1
scalar IDSforWSN.node[248].nic.ids 	neighbour108IntentionalPacketDropping 	0
scalar IDSforWSN.node[248].nic.ids 	neigh122PackRec 	92
scalar IDSforWSN.node[248].nic.ids 	neigh122PackFwd 	71
scalar IDSforWSN.node[248].nic.ids 	neigh122DropLoc 	0
scalar IDSforWSN.node[248].nic.ids 	neigh122DropGlob 	0
scalar IDSforWSN.node[248].nic.ids 	neigh122DelayLoc 	1
scalar IDSforWSN.node[248].nic.ids 	neigh122DelayGlob 	1
scalar IDSforWSN.node[248].nic.ids 	neighbour122IntentionalPacketDropping 	0
scalar IDSforWSN.node[248].nic.ids 	neigh124PackRec 	2
scalar IDSforWSN.node[248].nic.ids 	neigh124PackFwd 	1
scalar IDSforWSN.node[248].nic.ids 	neigh124DropLoc 	0
scalar IDSforWSN.node[248].nic.ids 	neigh124DropGlob 	0
scalar IDSforWSN.node[248].nic.ids 	neigh124DelayLoc 	1
scalar IDSforWSN.node[248].nic.ids 	neigh124DelayGlob 	0
scalar IDSforWSN.node[248].nic.ids 	neighbour124IntentionalPacketDropping 	0
scalar IDSforWSN.node[248].nic.ids 	neigh163PackRec 	76
scalar IDSforWSN.node[248].nic.ids 	neigh163PackFwd 	75
scalar IDSforWSN.node[248].nic.ids 	neigh163DropLoc 	0
scalar IDSforWSN.node[248].nic.ids 	neigh163DropGlob 	0
scalar IDSforWSN.node[248].nic.ids 	neigh163DelayLoc 	0
scalar IDSforWSN.node[248].nic.ids 	neigh163DelayGlob 	0
scalar IDSforWSN.node[248].nic.ids 	neighbour163IntentionalPacketDropping 	0
scalar IDSforWSN.node[248].nic.ids 	neigh165PackRec 	24
scalar IDSforWSN.node[248].nic.ids 	neigh165PackFwd 	22
scalar IDSforWSN.node[248].nic.ids 	neigh165DropLoc 	0
scalar IDSforWSN.node[248].nic.ids 	neigh165DropGlob 	0
scalar IDSforWSN.node[248].nic.ids 	neigh165DelayLoc 	0
scalar IDSforWSN.node[248].nic.ids 	neigh165DelayGlob 	0
scalar IDSforWSN.node[248].nic.ids 	neighbour165IntentionalPacketDropping 	0
scalar IDSforWSN.node[248].nic.ids 	neigh176PackRec 	3
scalar IDSforWSN.node[248].nic.ids 	neigh176PackFwd 	1
scalar IDSforWSN.node[248].nic.ids 	neigh176DropLoc 	0
scalar IDSforWSN.node[248].nic.ids 	neigh176DropGlob 	0
scalar IDSforWSN.node[248].nic.ids 	neigh176DelayLoc 	1
scalar IDSforWSN.node[248].nic.ids 	neigh176DelayGlob 	0
scalar IDSforWSN.node[248].nic.ids 	neighbour176IntentionalPacketDropping 	0
scalar IDSforWSN.node[248].nic.ids 	neigh186PackRec 	19
scalar IDSforWSN.node[248].nic.ids 	neigh186PackFwd 	17
scalar IDSforWSN.node[248].nic.ids 	neigh186DropLoc 	0
scalar IDSforWSN.node[248].nic.ids 	neigh186DropGlob 	0
scalar IDSforWSN.node[248].nic.ids 	neigh186DelayLoc 	1
scalar IDSforWSN.node[248].nic.ids 	neigh186DelayGlob 	1
scalar IDSforWSN.node[248].nic.ids 	neighbour186IntentionalPacketDropping 	0
scalar IDSforWSN.node[248].nic.ids 	neigh206PackRec 	141
scalar IDSforWSN.node[248].nic.ids 	neigh206PackFwd 	13
scalar IDSforWSN.node[248].nic.ids 	neigh206DropLoc 	0
scalar IDSforWSN.node[248].nic.ids 	neigh206DropGlob 	0
scalar IDSforWSN.node[248].nic.ids 	neigh206DelayLoc 	1
scalar IDSforWSN.node[248].nic.ids 	neigh206DelayGlob 	1
scalar IDSforWSN.node[248].nic.ids 	neighbour206IntentionalPacketDropping 	0
scalar IDSforWSN.node[248].nic.ids 	neigh239PackRec 	41
scalar IDSforWSN.node[248].nic.ids 	neigh239PackFwd 	26
scalar IDSforWSN.node[248].nic.ids 	neigh239DropLoc 	0
scalar IDSforWSN.node[248].nic.ids 	neigh239DropGlob 	0
scalar IDSforWSN.node[248].nic.ids 	neigh239DelayLoc 	1
scalar IDSforWSN.node[248].nic.ids 	neigh239DelayGlob 	1
scalar IDSforWSN.node[248].nic.ids 	neighbour239IntentionalPacketDropping 	0
scalar IDSforWSN.node[248].nic.ids 	neigh246PackRec 	22
scalar IDSforWSN.node[248].nic.ids 	neigh246PackFwd 	16
scalar IDSforWSN.node[248].nic.ids 	neigh246DropLoc 	0
scalar IDSforWSN.node[248].nic.ids 	neigh246DropGlob 	0
scalar IDSforWSN.node[248].nic.ids 	neigh246DelayLoc 	1
scalar IDSforWSN.node[248].nic.ids 	neigh246DelayGlob 	0
scalar IDSforWSN.node[248].nic.ids 	neighbour246IntentionalPacketDropping 	0
scalar IDSforWSN.node[248].nic.ids 	Neigbors_forwardersMap 	17
scalar IDSforWSN.node[248].nic.ids 	Neighbors_neighborsSet 	42
scalar IDSforWSN.node[248].nic.ids 	data_packets_intercepted 	550
scalar IDSforWSN.node[248].nic.ids 	data_packets_me_to_somebody 	5
scalar IDSforWSN.node[248].nic.ids 	data_packets_somebody_to_me 	0
scalar IDSforWSN.node[248].nic.ids 	data_packets_somebody_to_somebody 	545
scalar IDSforWSN.node[249].nic.ids 	neigh22PackRec 	37
scalar IDSforWSN.node[249].nic.ids 	neigh22PackFwd 	24
scalar IDSforWSN.node[249].nic.ids 	neigh22DropLoc 	0
scalar IDSforWSN.node[249].nic.ids 	neigh22DropGlob 	0
scalar IDSforWSN.node[249].nic.ids 	neigh22DelayLoc 	1
scalar IDSforWSN.node[249].nic.ids 	neigh22DelayGlob 	1
scalar IDSforWSN.node[249].nic.ids 	neighbour22IntentionalPacketDropping 	0
scalar IDSforWSN.node[249].nic.ids 	neigh29PackRec 	76
scalar IDSforWSN.node[249].nic.ids 	neigh29PackFwd 	48
scalar IDSforWSN.node[249].nic.ids 	neigh29DropLoc 	0
scalar IDSforWSN.node[249].nic.ids 	neigh29DropGlob 	0
scalar IDSforWSN.node[249].nic.ids 	neigh29DelayLoc 	1
scalar IDSforWSN.node[249].nic.ids 	neigh29DelayGlob 	1
scalar IDSforWSN.node[249].nic.ids 	neighbour29IntentionalPacketDropping 	0
scalar IDSforWSN.node[249].nic.ids 	neigh31PackRec 	34
scalar IDSforWSN.node[249].nic.ids 	neigh31PackFwd 	34
scalar IDSforWSN.node[249].nic.ids 	neigh31DropLoc 	0
scalar IDSforWSN.node[249].nic.ids 	neigh31DropGlob 	0
scalar IDSforWSN.node[249].nic.ids 	neigh31DelayLoc 	0
scalar IDSforWSN.node[249].nic.ids 	neigh31DelayGlob 	0
scalar IDSforWSN.node[249].nic.ids 	neighbour31IntentionalPacketDropping 	0
scalar IDSforWSN.node[249].nic.ids 	neigh33PackRec 	14
scalar IDSforWSN.node[249].nic.ids 	neigh33PackFwd 	10
scalar IDSforWSN.node[249].nic.ids 	neigh33DropLoc 	0
scalar IDSforWSN.node[249].nic.ids 	neigh33DropGlob 	0
scalar IDSforWSN.node[249].nic.ids 	neigh33DelayLoc 	1
scalar IDSforWSN.node[249].nic.ids 	neigh33DelayGlob 	0
scalar IDSforWSN.node[249].nic.ids 	neighbour33IntentionalPacketDropping 	0
scalar IDSforWSN.node[249].nic.ids 	neigh62PackRec 	30
scalar IDSforWSN.node[249].nic.ids 	neigh62PackFwd 	29
scalar IDSforWSN.node[249].nic.ids 	neigh62DropLoc 	0
scalar IDSforWSN.node[249].nic.ids 	neigh62DropGlob 	0
scalar IDSforWSN.node[249].nic.ids 	neigh62DelayLoc 	0
scalar IDSforWSN.node[249].nic.ids 	neigh62DelayGlob 	0
scalar IDSforWSN.node[249].nic.ids 	neighbour62IntentionalPacketDropping 	0
scalar IDSforWSN.node[249].nic.ids 	neigh70PackRec 	48
scalar IDSforWSN.node[249].nic.ids 	neigh70PackFwd 	3
scalar IDSforWSN.node[249].nic.ids 	neigh70DropLoc 	0
scalar IDSforWSN.node[249].nic.ids 	neigh70DropGlob 	0
scalar IDSforWSN.node[249].nic.ids 	neigh70DelayLoc 	1
scalar IDSforWSN.node[249].nic.ids 	neigh70DelayGlob 	1
scalar IDSforWSN.node[249].nic.ids 	neighbour70IntentionalPacketDropping 	0
scalar IDSforWSN.node[249].nic.ids 	neigh85PackRec 	5
scalar IDSforWSN.node[249].nic.ids 	neigh85PackFwd 	5
scalar IDSforWSN.node[249].nic.ids 	neigh85DropLoc 	0
scalar IDSforWSN.node[249].nic.ids 	neigh85DropGlob 	0
scalar IDSforWSN.node[249].nic.ids 	neigh85DelayLoc 	0
scalar IDSforWSN.node[249].nic.ids 	neigh85DelayGlob 	0
scalar IDSforWSN.node[249].nic.ids 	neighbour85IntentionalPacketDropping 	0
scalar IDSforWSN.node[249].nic.ids 	neigh99PackRec 	1
scalar IDSforWSN.node[249].nic.ids 	neigh99PackFwd 	0
scalar IDSforWSN.node[249].nic.ids 	neigh99DropLoc 	0
scalar IDSforWSN.node[249].nic.ids 	neigh99DropGlob 	0
scalar IDSforWSN.node[249].nic.ids 	neigh99DelayLoc 	1
scalar IDSforWSN.node[249].nic.ids 	neigh99DelayGlob 	0
scalar IDSforWSN.node[249].nic.ids 	neighbour99IntentionalPacketDropping 	0
scalar IDSforWSN.node[249].nic.ids 	neigh107PackRec 	7
scalar IDSforWSN.node[249].nic.ids 	neigh107PackFwd 	5
scalar IDSforWSN.node[249].nic.ids 	neigh107DropLoc 	0
scalar IDSforWSN.node[249].nic.ids 	neigh107DropGlob 	0
scalar IDSforWSN.node[249].nic.ids 	neigh107DelayLoc 	1
scalar IDSforWSN.node[249].nic.ids 	neigh107DelayGlob 	0
scalar IDSforWSN.node[249].nic.ids 	neighbour107IntentionalPacketDropping 	0
scalar IDSforWSN.node[249].nic.ids 	neigh113PackRec 	36
scalar IDSforWSN.node[249].nic.ids 	neigh113PackFwd 	1
scalar IDSforWSN.node[249].nic.ids 	neigh113DropLoc 	0
scalar IDSforWSN.node[249].nic.ids 	neigh113DropGlob 	0
scalar IDSforWSN.node[249].nic.ids 	neigh113DelayLoc 	1
scalar IDSforWSN.node[249].nic.ids 	neigh113DelayGlob 	1
scalar IDSforWSN.node[249].nic.ids 	neighbour113IntentionalPacketDropping 	0
scalar IDSforWSN.node[249].nic.ids 	neigh119PackRec 	4
scalar IDSforWSN.node[249].nic.ids 	neigh119PackFwd 	4
scalar IDSforWSN.node[249].nic.ids 	neigh119DropLoc 	0
scalar IDSforWSN.node[249].nic.ids 	neigh119DropGlob 	0
scalar IDSforWSN.node[249].nic.ids 	neigh119DelayLoc 	0
scalar IDSforWSN.node[249].nic.ids 	neigh119DelayGlob 	0
scalar IDSforWSN.node[249].nic.ids 	neighbour119IntentionalPacketDropping 	0
scalar IDSforWSN.node[249].nic.ids 	neigh149PackRec 	2
scalar IDSforWSN.node[249].nic.ids 	neigh149PackFwd 	2
scalar IDSforWSN.node[249].nic.ids 	neigh149DropLoc 	0
scalar IDSforWSN.node[249].nic.ids 	neigh149DropGlob 	0
scalar IDSforWSN.node[249].nic.ids 	neigh149DelayLoc 	0
scalar IDSforWSN.node[249].nic.ids 	neigh149DelayGlob 	0
scalar IDSforWSN.node[249].nic.ids 	neighbour149IntentionalPacketDropping 	0
scalar IDSforWSN.node[249].nic.ids 	neigh181PackRec 	52
scalar IDSforWSN.node[249].nic.ids 	neigh181PackFwd 	52
scalar IDSforWSN.node[249].nic.ids 	neigh181DropLoc 	0
scalar IDSforWSN.node[249].nic.ids 	neigh181DropGlob 	0
scalar IDSforWSN.node[249].nic.ids 	neigh181DelayLoc 	0
scalar IDSforWSN.node[249].nic.ids 	neigh181DelayGlob 	0
scalar IDSforWSN.node[249].nic.ids 	neighbour181IntentionalPacketDropping 	0
scalar IDSforWSN.node[249].nic.ids 	neigh199PackRec 	4
scalar IDSforWSN.node[249].nic.ids 	neigh199PackFwd 	4
scalar IDSforWSN.node[249].nic.ids 	neigh199DropLoc 	0
scalar IDSforWSN.node[249].nic.ids 	neigh199DropGlob 	0
scalar IDSforWSN.node[249].nic.ids 	neigh199DelayLoc 	0
scalar IDSforWSN.node[249].nic.ids 	neigh199DelayGlob 	0
scalar IDSforWSN.node[249].nic.ids 	neighbour199IntentionalPacketDropping 	0
scalar IDSforWSN.node[249].nic.ids 	neigh211PackRec 	22
scalar IDSforWSN.node[249].nic.ids 	neigh211PackFwd 	3
scalar IDSforWSN.node[249].nic.ids 	neigh211DropLoc 	0
scalar IDSforWSN.node[249].nic.ids 	neigh211DropGlob 	0
scalar IDSforWSN.node[249].nic.ids 	neigh211DelayLoc 	1
scalar IDSforWSN.node[249].nic.ids 	neigh211DelayGlob 	1
scalar IDSforWSN.node[249].nic.ids 	neighbour211IntentionalPacketDropping 	0
scalar IDSforWSN.node[249].nic.ids 	Neigbors_forwardersMap 	15
scalar IDSforWSN.node[249].nic.ids 	Neighbors_neighborsSet 	31
scalar IDSforWSN.node[249].nic.ids 	data_packets_intercepted 	403
scalar IDSforWSN.node[249].nic.ids 	data_packets_me_to_somebody 	5
scalar IDSforWSN.node[249].nic.ids 	data_packets_somebody_to_me 	0
scalar IDSforWSN.node[249].nic.ids 	data_packets_somebody_to_somebody 	398
scalar IDSforWSN.node[250].nic.ids 	neigh0PackRec 	1
scalar IDSforWSN.node[250].nic.ids 	neigh0PackFwd 	0
scalar IDSforWSN.node[250].nic.ids 	neigh0DropLoc 	0
scalar IDSforWSN.node[250].nic.ids 	neigh0DropGlob 	0
scalar IDSforWSN.node[250].nic.ids 	neigh0DelayLoc 	1
scalar IDSforWSN.node[250].nic.ids 	neigh0DelayGlob 	1
scalar IDSforWSN.node[250].nic.ids 	neighbour0IntentionalPacketDropping 	0
scalar IDSforWSN.node[250].nic.ids 	neigh8PackRec 	163
scalar IDSforWSN.node[250].nic.ids 	neigh8PackFwd 	151
scalar IDSforWSN.node[250].nic.ids 	neigh8DropLoc 	0
scalar IDSforWSN.node[250].nic.ids 	neigh8DropGlob 	0
scalar IDSforWSN.node[250].nic.ids 	neigh8DelayLoc 	0
scalar IDSforWSN.node[250].nic.ids 	neigh8DelayGlob 	0
scalar IDSforWSN.node[250].nic.ids 	neighbour8IntentionalPacketDropping 	0
scalar IDSforWSN.node[250].nic.ids 	neigh19PackRec 	63
scalar IDSforWSN.node[250].nic.ids 	neigh19PackFwd 	62
scalar IDSforWSN.node[250].nic.ids 	neigh19DropLoc 	0
scalar IDSforWSN.node[250].nic.ids 	neigh19DropGlob 	0
scalar IDSforWSN.node[250].nic.ids 	neigh19DelayLoc 	0
scalar IDSforWSN.node[250].nic.ids 	neigh19DelayGlob 	0
scalar IDSforWSN.node[250].nic.ids 	neighbour19IntentionalPacketDropping 	0
scalar IDSforWSN.node[250].nic.ids 	neigh27PackRec 	1
scalar IDSforWSN.node[250].nic.ids 	neigh27PackFwd 	1
scalar IDSforWSN.node[250].nic.ids 	neigh27DropLoc 	0
scalar IDSforWSN.node[250].nic.ids 	neigh27DropGlob 	0
scalar IDSforWSN.node[250].nic.ids 	neigh27DelayLoc 	0
scalar IDSforWSN.node[250].nic.ids 	neigh27DelayGlob 	0
scalar IDSforWSN.node[250].nic.ids 	neighbour27IntentionalPacketDropping 	0
scalar IDSforWSN.node[250].nic.ids 	neigh54PackRec 	68
scalar IDSforWSN.node[250].nic.ids 	neigh54PackFwd 	66
scalar IDSforWSN.node[250].nic.ids 	neigh54DropLoc 	0
scalar IDSforWSN.node[250].nic.ids 	neigh54DropGlob 	0
scalar IDSforWSN.node[250].nic.ids 	neigh54DelayLoc 	0
scalar IDSforWSN.node[250].nic.ids 	neigh54DelayGlob 	0
scalar IDSforWSN.node[250].nic.ids 	neighbour54IntentionalPacketDropping 	0
scalar IDSforWSN.node[250].nic.ids 	neigh70PackRec 	3
scalar IDSforWSN.node[250].nic.ids 	neigh70PackFwd 	2
scalar IDSforWSN.node[250].nic.ids 	neigh70DropLoc 	0
scalar IDSforWSN.node[250].nic.ids 	neigh70DropGlob 	0
scalar IDSforWSN.node[250].nic.ids 	neigh70DelayLoc 	1
scalar IDSforWSN.node[250].nic.ids 	neigh70DelayGlob 	0
scalar IDSforWSN.node[250].nic.ids 	neighbour70IntentionalPacketDropping 	0
scalar IDSforWSN.node[250].nic.ids 	neigh80PackRec 	1
scalar IDSforWSN.node[250].nic.ids 	neigh80PackFwd 	0
scalar IDSforWSN.node[250].nic.ids 	neigh80DropLoc 	0
scalar IDSforWSN.node[250].nic.ids 	neigh80DropGlob 	0
scalar IDSforWSN.node[250].nic.ids 	neigh80DelayLoc 	1
scalar IDSforWSN.node[250].nic.ids 	neigh80DelayGlob 	0
scalar IDSforWSN.node[250].nic.ids 	neighbour80IntentionalPacketDropping 	0
scalar IDSforWSN.node[250].nic.ids 	neigh87PackRec 	1
scalar IDSforWSN.node[250].nic.ids 	neigh87PackFwd 	1
scalar IDSforWSN.node[250].nic.ids 	neigh87DropLoc 	0
scalar IDSforWSN.node[250].nic.ids 	neigh87DropGlob 	0
scalar IDSforWSN.node[250].nic.ids 	neigh87DelayLoc 	0
scalar IDSforWSN.node[250].nic.ids 	neigh87DelayGlob 	0
scalar IDSforWSN.node[250].nic.ids 	neighbour87IntentionalPacketDropping 	0
scalar IDSforWSN.node[250].nic.ids 	neigh93PackRec 	2
scalar IDSforWSN.node[250].nic.ids 	neigh93PackFwd 	1
scalar IDSforWSN.node[250].nic.ids 	neigh93DropLoc 	0
scalar IDSforWSN.node[250].nic.ids 	neigh93DropGlob 	0
scalar IDSforWSN.node[250].nic.ids 	neigh93DelayLoc 	1
scalar IDSforWSN.node[250].nic.ids 	neigh93DelayGlob 	0
scalar IDSforWSN.node[250].nic.ids 	neighbour93IntentionalPacketDropping 	0
scalar IDSforWSN.node[250].nic.ids 	neigh108PackRec 	47
scalar IDSforWSN.node[250].nic.ids 	neigh108PackFwd 	36
scalar IDSforWSN.node[250].nic.ids 	neigh108DropLoc 	0
scalar IDSforWSN.node[250].nic.ids 	neigh108DropGlob 	0
scalar IDSforWSN.node[250].nic.ids 	neigh108DelayLoc 	1
scalar IDSforWSN.node[250].nic.ids 	neigh108DelayGlob 	1
scalar IDSforWSN.node[250].nic.ids 	neighbour108IntentionalPacketDropping 	0
scalar IDSforWSN.node[250].nic.ids 	neigh113PackRec 	11
scalar IDSforWSN.node[250].nic.ids 	neigh113PackFwd 	9
scalar IDSforWSN.node[250].nic.ids 	neigh113DropLoc 	0
scalar IDSforWSN.node[250].nic.ids 	neigh113DropGlob 	0
scalar IDSforWSN.node[250].nic.ids 	neigh113DelayLoc 	1
scalar IDSforWSN.node[250].nic.ids 	neigh113DelayGlob 	0
scalar IDSforWSN.node[250].nic.ids 	neighbour113IntentionalPacketDropping 	0
scalar IDSforWSN.node[250].nic.ids 	neigh116PackRec 	61
scalar IDSforWSN.node[250].nic.ids 	neigh116PackFwd 	53
scalar IDSforWSN.node[250].nic.ids 	neigh116DropLoc 	0
scalar IDSforWSN.node[250].nic.ids 	neigh116DropGlob 	0
scalar IDSforWSN.node[250].nic.ids 	neigh116DelayLoc 	1
scalar IDSforWSN.node[250].nic.ids 	neigh116DelayGlob 	1
scalar IDSforWSN.node[250].nic.ids 	neighbour116IntentionalPacketDropping 	0
scalar IDSforWSN.node[250].nic.ids 	neigh185PackRec 	1
scalar IDSforWSN.node[250].nic.ids 	neigh185PackFwd 	0
scalar IDSforWSN.node[250].nic.ids 	neigh185DropLoc 	0
scalar IDSforWSN.node[250].nic.ids 	neigh185DropGlob 	0
scalar IDSforWSN.node[250].nic.ids 	neigh185DelayLoc 	1
scalar IDSforWSN.node[250].nic.ids 	neigh185DelayGlob 	0
scalar IDSforWSN.node[250].nic.ids 	neighbour185IntentionalPacketDropping 	0
scalar IDSforWSN.node[250].nic.ids 	neigh206PackRec 	97
scalar IDSforWSN.node[250].nic.ids 	neigh206PackFwd 	93
scalar IDSforWSN.node[250].nic.ids 	neigh206DropLoc 	0
scalar IDSforWSN.node[250].nic.ids 	neigh206DropGlob 	0
scalar IDSforWSN.node[250].nic.ids 	neigh206DelayLoc 	1
scalar IDSforWSN.node[250].nic.ids 	neigh206DelayGlob 	1
scalar IDSforWSN.node[250].nic.ids 	neighbour206IntentionalPacketDropping 	0
scalar IDSforWSN.node[250].nic.ids 	neigh239PackRec 	6
scalar IDSforWSN.node[250].nic.ids 	neigh239PackFwd 	3
scalar IDSforWSN.node[250].nic.ids 	neigh239DropLoc 	0
scalar IDSforWSN.node[250].nic.ids 	neigh239DropGlob 	0
scalar IDSforWSN.node[250].nic.ids 	neigh239DelayLoc 	1
scalar IDSforWSN.node[250].nic.ids 	neigh239DelayGlob 	0
scalar IDSforWSN.node[250].nic.ids 	neighbour239IntentionalPacketDropping 	0
scalar IDSforWSN.node[250].nic.ids 	neigh241PackRec 	1
scalar IDSforWSN.node[250].nic.ids 	neigh241PackFwd 	0
scalar IDSforWSN.node[250].nic.ids 	neigh241DropLoc 	0
scalar IDSforWSN.node[250].nic.ids 	neigh241DropGlob 	0
scalar IDSforWSN.node[250].nic.ids 	neigh241DelayLoc 	1
scalar IDSforWSN.node[250].nic.ids 	neigh241DelayGlob 	1
scalar IDSforWSN.node[250].nic.ids 	neighbour241IntentionalPacketDropping 	0
scalar IDSforWSN.node[250].nic.ids 	neigh246PackRec 	8
scalar IDSforWSN.node[250].nic.ids 	neigh246PackFwd 	7
scalar IDSforWSN.node[250].nic.ids 	neigh246DropLoc 	0
scalar IDSforWSN.node[250].nic.ids 	neigh246DropGlob 	0
scalar IDSforWSN.node[250].nic.ids 	neigh246DelayLoc 	0
scalar IDSforWSN.node[250].nic.ids 	neigh246DelayGlob 	0
scalar IDSforWSN.node[250].nic.ids 	neighbour246IntentionalPacketDropping 	0
scalar IDSforWSN.node[250].nic.ids 	Neigbors_forwardersMap 	17
scalar IDSforWSN.node[250].nic.ids 	Neighbors_neighborsSet 	41
scalar IDSforWSN.node[250].nic.ids 	data_packets_intercepted 	1589
scalar IDSforWSN.node[250].nic.ids 	data_packets_me_to_somebody 	0
scalar IDSforWSN.node[250].nic.ids 	data_packets_somebody_to_me 	1049
scalar IDSforWSN.node[250].nic.ids 	data_packets_somebody_to_somebody 	540
