version 2
run General-0-20150109-15:38:29-2700
attr configname General
attr datetime 20150109-15:38:29
attr experiment General
attr inifile omnetpp.ini
attr iterationvars ""
attr iterationvars2 $repetition=0
attr measurement ""
attr network idsforwsn.networks.IDSforWSN
attr processid 2700
attr repetition 0
attr replication #0
attr resultdir results
attr runnumber 0
attr seedset 0

statistic IDSforWSN.simHelper 	numNeighbors
field count 251
field mean 11.98406374502
field stddev 3.6616587798319
field sum 3008
field sqrsum 39400
field min 3
field max 24
attr type  int
bin	-INF	0
bin	-6	0
bin	-5	0
bin	-4	0
bin	-3	0
bin	-2	0
bin	-1	0
bin	0	0
bin	1	0
bin	2	0
bin	3	1
bin	4	4
bin	5	5
bin	6	5
bin	7	12
bin	8	16
bin	9	18
bin	10	22
bin	11	29
bin	12	28
bin	13	35
bin	14	21
bin	15	15
bin	16	13
bin	17	9
bin	18	9
bin	19	4
bin	20	0
bin	21	2
bin	22	0
bin	23	2
bin	24	1
bin	25	0
bin	26	0
bin	27	0
bin	28	0
bin	29	0
bin	30	0
bin	31	0
bin	32	0
bin	33	0
bin	34	0
scalar IDSforWSN.simHelper 	"neighbors in average" 	11.98406374502
scalar IDSforWSN.node[0].mobility 	x 	68.6391830445
scalar IDSforWSN.node[0].mobility 	y 	48.8496246338
scalar IDSforWSN.node[0].nic.mac 	nbTxFrames 	252
scalar IDSforWSN.node[0].nic.mac 	nbRxFrames 	187
scalar IDSforWSN.node[0].nic.mac 	nbDroppedFrames 	0
scalar IDSforWSN.node[0].nic.mac 	nbMissedAcks 	0
scalar IDSforWSN.node[0].nic.mac 	nbRecvdAcks 	0
scalar IDSforWSN.node[0].nic.mac 	nbTxAcks 	0
scalar IDSforWSN.node[0].nic.mac 	nbDuplicates 	0
scalar IDSforWSN.node[0].nic.mac 	meanBackoff 	0.0011737404580153
scalar IDSforWSN.node[0].nic.mac 	nbBackoffs 	262
scalar IDSforWSN.node[0].nic.mac 	backoffDurations 	0.30752
scalar IDSforWSN.node[0].nic.ids 	neighbour19PacketsReceived 	246
scalar IDSforWSN.node[0].nic.ids 	neighbour19PacketsForwarded 	1
scalar IDSforWSN.node[0].nic.ids 	neighbour19isDropperLocal 	1
scalar IDSforWSN.node[0].nic.ids 	neighbour19isDropperGlobal 	1
scalar IDSforWSN.node[0].nic.ids 	neighbour19IntentionalPacketDropping 	0
scalar IDSforWSN.node[0].nic.ids 	neighbour93PacketsReceived 	93
scalar IDSforWSN.node[0].nic.ids 	neighbour93PacketsForwarded 	58
scalar IDSforWSN.node[0].nic.ids 	neighbour93isDropperLocal 	1
scalar IDSforWSN.node[0].nic.ids 	neighbour93isDropperGlobal 	1
scalar IDSforWSN.node[0].nic.ids 	neighbour93IntentionalPacketDropping 	0
scalar IDSforWSN.node[0].nic.ids 	neighbour116PacketsReceived 	110
scalar IDSforWSN.node[0].nic.ids 	neighbour116PacketsForwarded 	8
scalar IDSforWSN.node[0].nic.ids 	neighbour116isDropperLocal 	1
scalar IDSforWSN.node[0].nic.ids 	neighbour116isDropperGlobal 	1
scalar IDSforWSN.node[0].nic.ids 	neighbour116IntentionalPacketDropping 	0
scalar IDSforWSN.node[0].nic.ids 	"Number of neighbors - forwardersMap" 	3
scalar IDSforWSN.node[0].nic.ids 	"Number of neighbors - neighborsSet" 	16
scalar IDSforWSN.node[0].nic.ids 	data_packets_intercepted 	683
scalar IDSforWSN.node[0].nic.ids 	data_packets_me_to_somebody 	212
scalar IDSforWSN.node[0].nic.ids 	data_packets_somebody_to_me 	188
scalar IDSforWSN.node[0].nic.ids 	data_packets_somebody_to_somebody 	283
scalar IDSforWSN.node[0].nic.phy 	nbFramesWithInterference 	13
scalar IDSforWSN.node[0].nic.phy 	nbFramesWithoutInterference 	1208
scalar IDSforWSN.node[0].nic.phy 	nbFramesWithInterferencePartial 	95
scalar IDSforWSN.node[0].nic.phy 	nbFramesWithoutInterferencePartial 	5696
scalar IDSforWSN.node[0].nic.phy 	nbFramesWithInterferenceDropped 	10
scalar IDSforWSN.node[0].nic.phy 	nbFramesWithoutInterferenceDropped 	994
scalar IDSforWSN.node[0].netwl 	nbPacketsForwarded 	188
scalar IDSforWSN.node[0].netwl 	nbPacketsReceived 	188
scalar IDSforWSN.node[0].netwl 	nbPacketsSent 	24
scalar IDSforWSN.node[0].netwl 	nbPacketsDropped 	0
scalar IDSforWSN.node[0].tranl 	nbAggrPktReceived 	0
scalar IDSforWSN.node[0].tranl 	"nbAggrPktSentDown " 	0
scalar IDSforWSN.node[0].appl 	"activity duration" 	-1
attr unit  s
scalar IDSforWSN.node[0].appl 	firstPacketGeneration 	-1
attr unit  s
scalar IDSforWSN.node[0].appl 	lastPacketReception 	-2
attr unit  s
scalar IDSforWSN.node[0].appl 	nbPacketsSent 	24
scalar IDSforWSN.node[0].appl 	nbPacketsReceived 	0
statistic IDSforWSN.node[0].appl 	latency
field count 0
field mean 0
field stddev -1.#IND
field sum 0
field sqrsum 0
field min 0
field max 0
scalar IDSforWSN.node[0].batteryStats 	nominal 	10800000
attr unit  mW-s
scalar IDSforWSN.node[0].batteryStats 	total 	6767.3495039903
attr unit  mW-s
scalar IDSforWSN.node[0].batteryStats 	lifetime 	-1
attr unit  s
scalar IDSforWSN.node[0].batteryStats 	"Mean power consumption" 	56.394579199919
attr unit  mW
scalar IDSforWSN.node[1].mobility 	x 	32.6307411194
scalar IDSforWSN.node[1].mobility 	y 	46.170539856
scalar IDSforWSN.node[1].nic.mac 	nbTxFrames 	73
scalar IDSforWSN.node[1].nic.mac 	nbRxFrames 	0
scalar IDSforWSN.node[1].nic.mac 	nbDroppedFrames 	0
scalar IDSforWSN.node[1].nic.mac 	nbMissedAcks 	0
scalar IDSforWSN.node[1].nic.mac 	nbRecvdAcks 	0
scalar IDSforWSN.node[1].nic.mac 	nbTxAcks 	0
scalar IDSforWSN.node[1].nic.mac 	nbDuplicates 	0
scalar IDSforWSN.node[1].nic.mac 	meanBackoff 	0.0013007792207792
scalar IDSforWSN.node[1].nic.mac 	nbBackoffs 	77
scalar IDSforWSN.node[1].nic.mac 	backoffDurations 	0.10016
scalar IDSforWSN.node[1].nic.ids 	neighbour54PacketsReceived 	109
scalar IDSforWSN.node[1].nic.ids 	neighbour54PacketsForwarded 	4
scalar IDSforWSN.node[1].nic.ids 	neighbour54isDropperLocal 	1
scalar IDSforWSN.node[1].nic.ids 	neighbour54isDropperGlobal 	1
scalar IDSforWSN.node[1].nic.ids 	neighbour54IntentionalPacketDropping 	0
scalar IDSforWSN.node[1].nic.ids 	neighbour76PacketsReceived 	5
scalar IDSforWSN.node[1].nic.ids 	neighbour76PacketsForwarded 	3
scalar IDSforWSN.node[1].nic.ids 	neighbour76isDropperLocal 	1
scalar IDSforWSN.node[1].nic.ids 	neighbour76isDropperGlobal 	1
scalar IDSforWSN.node[1].nic.ids 	neighbour76IntentionalPacketDropping 	0
scalar IDSforWSN.node[1].nic.ids 	neighbour80PacketsReceived 	11
scalar IDSforWSN.node[1].nic.ids 	neighbour80PacketsForwarded 	8
scalar IDSforWSN.node[1].nic.ids 	neighbour80isDropperLocal 	1
scalar IDSforWSN.node[1].nic.ids 	neighbour80isDropperGlobal 	0
scalar IDSforWSN.node[1].nic.ids 	neighbour80IntentionalPacketDropping 	0
scalar IDSforWSN.node[1].nic.ids 	neighbour82PacketsReceived 	23
scalar IDSforWSN.node[1].nic.ids 	neighbour82PacketsForwarded 	23
scalar IDSforWSN.node[1].nic.ids 	neighbour82isDropperLocal 	0
scalar IDSforWSN.node[1].nic.ids 	neighbour82isDropperGlobal 	0
scalar IDSforWSN.node[1].nic.ids 	neighbour82IntentionalPacketDropping 	0
scalar IDSforWSN.node[1].nic.ids 	neighbour90PacketsReceived 	144
scalar IDSforWSN.node[1].nic.ids 	neighbour90PacketsForwarded 	82
scalar IDSforWSN.node[1].nic.ids 	neighbour90isDropperLocal 	1
scalar IDSforWSN.node[1].nic.ids 	neighbour90isDropperGlobal 	1
scalar IDSforWSN.node[1].nic.ids 	neighbour90IntentionalPacketDropping 	0
scalar IDSforWSN.node[1].nic.ids 	neighbour108PacketsReceived 	222
scalar IDSforWSN.node[1].nic.ids 	neighbour108PacketsForwarded 	41
scalar IDSforWSN.node[1].nic.ids 	neighbour108isDropperLocal 	1
scalar IDSforWSN.node[1].nic.ids 	neighbour108isDropperGlobal 	1
scalar IDSforWSN.node[1].nic.ids 	neighbour108IntentionalPacketDropping 	0.8
scalar IDSforWSN.node[1].nic.ids 	neighbour185PacketsReceived 	17
scalar IDSforWSN.node[1].nic.ids 	neighbour185PacketsForwarded 	3
scalar IDSforWSN.node[1].nic.ids 	neighbour185isDropperLocal 	1
scalar IDSforWSN.node[1].nic.ids 	neighbour185isDropperGlobal 	1
scalar IDSforWSN.node[1].nic.ids 	neighbour185IntentionalPacketDropping 	0
scalar IDSforWSN.node[1].nic.ids 	"Number of neighbors - forwardersMap" 	7
scalar IDSforWSN.node[1].nic.ids 	"Number of neighbors - neighborsSet" 	17
scalar IDSforWSN.node[1].nic.ids 	data_packets_intercepted 	626
scalar IDSforWSN.node[1].nic.ids 	data_packets_me_to_somebody 	24
scalar IDSforWSN.node[1].nic.ids 	data_packets_somebody_to_me 	0
scalar IDSforWSN.node[1].nic.ids 	data_packets_somebody_to_somebody 	602
scalar IDSforWSN.node[1].nic.phy 	nbFramesWithInterference 	17
scalar IDSforWSN.node[1].nic.phy 	nbFramesWithoutInterference 	1169
scalar IDSforWSN.node[1].nic.phy 	nbFramesWithInterferencePartial 	104
scalar IDSforWSN.node[1].nic.phy 	nbFramesWithoutInterferencePartial 	6191
scalar IDSforWSN.node[1].nic.phy 	nbFramesWithInterferenceDropped 	18
scalar IDSforWSN.node[1].nic.phy 	nbFramesWithoutInterferenceDropped 	1001
scalar IDSforWSN.node[1].netwl 	nbPacketsForwarded 	0
scalar IDSforWSN.node[1].netwl 	nbPacketsReceived 	0
scalar IDSforWSN.node[1].netwl 	nbPacketsSent 	24
scalar IDSforWSN.node[1].netwl 	nbPacketsDropped 	0
scalar IDSforWSN.node[1].tranl 	nbAggrPktReceived 	0
scalar IDSforWSN.node[1].tranl 	"nbAggrPktSentDown " 	0
scalar IDSforWSN.node[1].appl 	"activity duration" 	-1
attr unit  s
scalar IDSforWSN.node[1].appl 	firstPacketGeneration 	-1
attr unit  s
scalar IDSforWSN.node[1].appl 	lastPacketReception 	-2
attr unit  s
scalar IDSforWSN.node[1].appl 	nbPacketsSent 	24
scalar IDSforWSN.node[1].appl 	nbPacketsReceived 	0
statistic IDSforWSN.node[1].appl 	latency
field count 0
field mean 0
field stddev -1.#IND
field sum 0
field sqrsum 0
field min 0
field max 0
scalar IDSforWSN.node[1].batteryStats 	nominal 	10800000
attr unit  mW-s
scalar IDSforWSN.node[1].batteryStats 	total 	6767.8367040623
attr unit  mW-s
scalar IDSforWSN.node[1].batteryStats 	lifetime 	-1
attr unit  s
scalar IDSforWSN.node[1].batteryStats 	"Mean power consumption" 	56.398639200519
attr unit  mW
scalar IDSforWSN.node[2].mobility 	x 	5.8143730164
scalar IDSforWSN.node[2].mobility 	y 	90.280609131
scalar IDSforWSN.node[2].nic.mac 	nbTxFrames 	90
scalar IDSforWSN.node[2].nic.mac 	nbRxFrames 	24
scalar IDSforWSN.node[2].nic.mac 	nbDroppedFrames 	0
scalar IDSforWSN.node[2].nic.mac 	nbMissedAcks 	0
scalar IDSforWSN.node[2].nic.mac 	nbRecvdAcks 	0
scalar IDSforWSN.node[2].nic.mac 	nbTxAcks 	0
scalar IDSforWSN.node[2].nic.mac 	nbDuplicates 	0
scalar IDSforWSN.node[2].nic.mac 	meanBackoff 	0.0012069565217391
scalar IDSforWSN.node[2].nic.mac 	nbBackoffs 	92
scalar IDSforWSN.node[2].nic.mac 	backoffDurations 	0.11104
scalar IDSforWSN.node[2].nic.ids 	neighbour16PacketsReceived 	71
scalar IDSforWSN.node[2].nic.ids 	neighbour16PacketsForwarded 	71
scalar IDSforWSN.node[2].nic.ids 	neighbour16isDropperLocal 	0
scalar IDSforWSN.node[2].nic.ids 	neighbour16isDropperGlobal 	0
scalar IDSforWSN.node[2].nic.ids 	neighbour16IntentionalPacketDropping 	0
scalar IDSforWSN.node[2].nic.ids 	neighbour71PacketsReceived 	233
scalar IDSforWSN.node[2].nic.ids 	neighbour71PacketsForwarded 	51
scalar IDSforWSN.node[2].nic.ids 	neighbour71isDropperLocal 	1
scalar IDSforWSN.node[2].nic.ids 	neighbour71isDropperGlobal 	1
scalar IDSforWSN.node[2].nic.ids 	neighbour71IntentionalPacketDropping 	0
scalar IDSforWSN.node[2].nic.ids 	neighbour83PacketsReceived 	15
scalar IDSforWSN.node[2].nic.ids 	neighbour83PacketsForwarded 	0
scalar IDSforWSN.node[2].nic.ids 	neighbour83isDropperLocal 	1
scalar IDSforWSN.node[2].nic.ids 	neighbour83isDropperGlobal 	0
scalar IDSforWSN.node[2].nic.ids 	neighbour83IntentionalPacketDropping 	0
scalar IDSforWSN.node[2].nic.ids 	neighbour221PacketsReceived 	5
scalar IDSforWSN.node[2].nic.ids 	neighbour221PacketsForwarded 	4
scalar IDSforWSN.node[2].nic.ids 	neighbour221isDropperLocal 	1
scalar IDSforWSN.node[2].nic.ids 	neighbour221isDropperGlobal 	0
scalar IDSforWSN.node[2].nic.ids 	neighbour221IntentionalPacketDropping 	0
scalar IDSforWSN.node[2].nic.ids 	"Number of neighbors - forwardersMap" 	4
scalar IDSforWSN.node[2].nic.ids 	"Number of neighbors - neighborsSet" 	12
scalar IDSforWSN.node[2].nic.ids 	data_packets_intercepted 	419
scalar IDSforWSN.node[2].nic.ids 	data_packets_me_to_somebody 	48
scalar IDSforWSN.node[2].nic.ids 	data_packets_somebody_to_me 	24
scalar IDSforWSN.node[2].nic.ids 	data_packets_somebody_to_somebody 	347
scalar IDSforWSN.node[2].nic.phy 	nbFramesWithInterference 	0
scalar IDSforWSN.node[2].nic.phy 	nbFramesWithoutInterference 	620
scalar IDSforWSN.node[2].nic.phy 	nbFramesWithInterferencePartial 	5
scalar IDSforWSN.node[2].nic.phy 	nbFramesWithoutInterferencePartial 	1110
scalar IDSforWSN.node[2].nic.phy 	nbFramesWithInterferenceDropped 	0
scalar IDSforWSN.node[2].nic.phy 	nbFramesWithoutInterferenceDropped 	161
scalar IDSforWSN.node[2].netwl 	nbPacketsForwarded 	24
scalar IDSforWSN.node[2].netwl 	nbPacketsReceived 	24
scalar IDSforWSN.node[2].netwl 	nbPacketsSent 	24
scalar IDSforWSN.node[2].netwl 	nbPacketsDropped 	0
scalar IDSforWSN.node[2].tranl 	nbAggrPktReceived 	0
scalar IDSforWSN.node[2].tranl 	"nbAggrPktSentDown " 	0
scalar IDSforWSN.node[2].appl 	"activity duration" 	-1
attr unit  s
scalar IDSforWSN.node[2].appl 	firstPacketGeneration 	-1
attr unit  s
scalar IDSforWSN.node[2].appl 	lastPacketReception 	-2
attr unit  s
scalar IDSforWSN.node[2].appl 	nbPacketsSent 	24
scalar IDSforWSN.node[2].appl 	nbPacketsReceived 	0
statistic IDSforWSN.node[2].appl 	latency
field count 0
field mean 0
field stddev -1.#IND
field sum 0
field sqrsum 0
field min 0
field max 0
scalar IDSforWSN.node[2].batteryStats 	nominal 	10800000
attr unit  mW-s
scalar IDSforWSN.node[2].batteryStats 	total 	6767.786304038
attr unit  mW-s
scalar IDSforWSN.node[2].batteryStats 	lifetime 	-1
attr unit  s
scalar IDSforWSN.node[2].batteryStats 	"Mean power consumption" 	56.398219200317
attr unit  mW
scalar IDSforWSN.node[3].mobility 	x 	92.1928253175
scalar IDSforWSN.node[3].mobility 	y 	11.79429245
scalar IDSforWSN.node[3].nic.mac 	nbTxFrames 	104
scalar IDSforWSN.node[3].nic.mac 	nbRxFrames 	37
scalar IDSforWSN.node[3].nic.mac 	nbDroppedFrames 	0
scalar IDSforWSN.node[3].nic.mac 	nbMissedAcks 	0
scalar IDSforWSN.node[3].nic.mac 	nbRecvdAcks 	0
scalar IDSforWSN.node[3].nic.mac 	nbTxAcks 	0
scalar IDSforWSN.node[3].nic.mac 	nbDuplicates 	0
scalar IDSforWSN.node[3].nic.mac 	meanBackoff 	0.0010514285714286
scalar IDSforWSN.node[3].nic.mac 	nbBackoffs 	105
scalar IDSforWSN.node[3].nic.mac 	backoffDurations 	0.1104
scalar IDSforWSN.node[3].nic.ids 	neighbour57PacketsReceived 	24
scalar IDSforWSN.node[3].nic.ids 	neighbour57PacketsForwarded 	20
scalar IDSforWSN.node[3].nic.ids 	neighbour57isDropperLocal 	1
scalar IDSforWSN.node[3].nic.ids 	neighbour57isDropperGlobal 	0
scalar IDSforWSN.node[3].nic.ids 	neighbour57IntentionalPacketDropping 	0
scalar IDSforWSN.node[3].nic.ids 	neighbour120PacketsReceived 	18
scalar IDSforWSN.node[3].nic.ids 	neighbour120PacketsForwarded 	3
scalar IDSforWSN.node[3].nic.ids 	neighbour120isDropperLocal 	1
scalar IDSforWSN.node[3].nic.ids 	neighbour120isDropperGlobal 	0
scalar IDSforWSN.node[3].nic.ids 	neighbour120IntentionalPacketDropping 	0
scalar IDSforWSN.node[3].nic.ids 	neighbour142PacketsReceived 	105
scalar IDSforWSN.node[3].nic.ids 	neighbour142PacketsForwarded 	16
scalar IDSforWSN.node[3].nic.ids 	neighbour142isDropperLocal 	1
scalar IDSforWSN.node[3].nic.ids 	neighbour142isDropperGlobal 	1
scalar IDSforWSN.node[3].nic.ids 	neighbour142IntentionalPacketDropping 	0
scalar IDSforWSN.node[3].nic.ids 	neighbour203PacketsReceived 	26
scalar IDSforWSN.node[3].nic.ids 	neighbour203PacketsForwarded 	3
scalar IDSforWSN.node[3].nic.ids 	neighbour203isDropperLocal 	1
scalar IDSforWSN.node[3].nic.ids 	neighbour203isDropperGlobal 	1
scalar IDSforWSN.node[3].nic.ids 	neighbour203IntentionalPacketDropping 	0
scalar IDSforWSN.node[3].nic.ids 	"Number of neighbors - forwardersMap" 	4
scalar IDSforWSN.node[3].nic.ids 	"Number of neighbors - neighborsSet" 	12
scalar IDSforWSN.node[3].nic.ids 	data_packets_intercepted 	310
scalar IDSforWSN.node[3].nic.ids 	data_packets_me_to_somebody 	61
scalar IDSforWSN.node[3].nic.ids 	data_packets_somebody_to_me 	37
scalar IDSforWSN.node[3].nic.ids 	data_packets_somebody_to_somebody 	212
scalar IDSforWSN.node[3].nic.phy 	nbFramesWithInterference 	0
scalar IDSforWSN.node[3].nic.phy 	nbFramesWithoutInterference 	469
scalar IDSforWSN.node[3].nic.phy 	nbFramesWithInterferencePartial 	11
scalar IDSforWSN.node[3].nic.phy 	nbFramesWithoutInterferencePartial 	1781
scalar IDSforWSN.node[3].nic.phy 	nbFramesWithInterferenceDropped 	1
scalar IDSforWSN.node[3].nic.phy 	nbFramesWithoutInterferenceDropped 	498
scalar IDSforWSN.node[3].netwl 	nbPacketsForwarded 	37
scalar IDSforWSN.node[3].netwl 	nbPacketsReceived 	37
scalar IDSforWSN.node[3].netwl 	nbPacketsSent 	24
scalar IDSforWSN.node[3].netwl 	nbPacketsDropped 	0
scalar IDSforWSN.node[3].tranl 	nbAggrPktReceived 	0
scalar IDSforWSN.node[3].tranl 	"nbAggrPktSentDown " 	0
scalar IDSforWSN.node[3].appl 	"activity duration" 	-1
attr unit  s
scalar IDSforWSN.node[3].appl 	firstPacketGeneration 	-1
attr unit  s
scalar IDSforWSN.node[3].appl 	lastPacketReception 	-2
attr unit  s
scalar IDSforWSN.node[3].appl 	nbPacketsSent 	24
scalar IDSforWSN.node[3].appl 	nbPacketsReceived 	0
statistic IDSforWSN.node[3].appl 	latency
field count 0
field mean 0
field stddev -1.#IND
field sum 0
field sqrsum 0
field min 0
field max 0
scalar IDSforWSN.node[3].batteryStats 	nominal 	10800000
attr unit  mW-s
scalar IDSforWSN.node[3].batteryStats 	total 	6767.749344036
attr unit  mW-s
scalar IDSforWSN.node[3].batteryStats 	lifetime 	-1
attr unit  s
scalar IDSforWSN.node[3].batteryStats 	"Mean power consumption" 	56.3979112003
attr unit  mW
scalar IDSforWSN.node[4].mobility 	x 	21.8353366852
scalar IDSforWSN.node[4].mobility 	y 	2.4205608368
scalar IDSforWSN.node[4].nic.mac 	nbTxFrames 	45
scalar IDSforWSN.node[4].nic.mac 	nbRxFrames 	0
scalar IDSforWSN.node[4].nic.mac 	nbDroppedFrames 	0
scalar IDSforWSN.node[4].nic.mac 	nbMissedAcks 	0
scalar IDSforWSN.node[4].nic.mac 	nbRecvdAcks 	0
scalar IDSforWSN.node[4].nic.mac 	nbTxAcks 	0
scalar IDSforWSN.node[4].nic.mac 	nbDuplicates 	0
scalar IDSforWSN.node[4].nic.mac 	meanBackoff 	0.0011097872340426
scalar IDSforWSN.node[4].nic.mac 	nbBackoffs 	47
scalar IDSforWSN.node[4].nic.mac 	backoffDurations 	0.05216
scalar IDSforWSN.node[4].nic.ids 	neighbour17PacketsReceived 	46
scalar IDSforWSN.node[4].nic.ids 	neighbour17PacketsForwarded 	30
scalar IDSforWSN.node[4].nic.ids 	neighbour17isDropperLocal 	1
scalar IDSforWSN.node[4].nic.ids 	neighbour17isDropperGlobal 	0
scalar IDSforWSN.node[4].nic.ids 	neighbour17IntentionalPacketDropping 	0
scalar IDSforWSN.node[4].nic.ids 	neighbour35PacketsReceived 	9
scalar IDSforWSN.node[4].nic.ids 	neighbour35PacketsForwarded 	0
scalar IDSforWSN.node[4].nic.ids 	neighbour35isDropperLocal 	1
scalar IDSforWSN.node[4].nic.ids 	neighbour35isDropperGlobal 	0
scalar IDSforWSN.node[4].nic.ids 	neighbour35IntentionalPacketDropping 	0
scalar IDSforWSN.node[4].nic.ids 	neighbour212PacketsReceived 	69
scalar IDSforWSN.node[4].nic.ids 	neighbour212PacketsForwarded 	0
scalar IDSforWSN.node[4].nic.ids 	neighbour212isDropperLocal 	1
scalar IDSforWSN.node[4].nic.ids 	neighbour212isDropperGlobal 	1
scalar IDSforWSN.node[4].nic.ids 	neighbour212IntentionalPacketDropping 	0
scalar IDSforWSN.node[4].nic.ids 	"Number of neighbors - forwardersMap" 	3
scalar IDSforWSN.node[4].nic.ids 	"Number of neighbors - neighborsSet" 	7
scalar IDSforWSN.node[4].nic.ids 	data_packets_intercepted 	146
scalar IDSforWSN.node[4].nic.ids 	data_packets_me_to_somebody 	24
scalar IDSforWSN.node[4].nic.ids 	data_packets_somebody_to_me 	0
scalar IDSforWSN.node[4].nic.ids 	data_packets_somebody_to_somebody 	122
scalar IDSforWSN.node[4].nic.phy 	nbFramesWithInterference 	1
scalar IDSforWSN.node[4].nic.phy 	nbFramesWithoutInterference 	187
scalar IDSforWSN.node[4].nic.phy 	nbFramesWithInterferencePartial 	11
scalar IDSforWSN.node[4].nic.phy 	nbFramesWithoutInterferencePartial 	2040
scalar IDSforWSN.node[4].nic.phy 	nbFramesWithInterferenceDropped 	0
scalar IDSforWSN.node[4].nic.phy 	nbFramesWithoutInterferenceDropped 	261
scalar IDSforWSN.node[4].netwl 	nbPacketsForwarded 	0
scalar IDSforWSN.node[4].netwl 	nbPacketsReceived 	0
scalar IDSforWSN.node[4].netwl 	nbPacketsSent 	24
scalar IDSforWSN.node[4].netwl 	nbPacketsDropped 	0
scalar IDSforWSN.node[4].tranl 	nbAggrPktReceived 	0
scalar IDSforWSN.node[4].tranl 	"nbAggrPktSentDown " 	0
scalar IDSforWSN.node[4].appl 	"activity duration" 	-1
attr unit  s
scalar IDSforWSN.node[4].appl 	firstPacketGeneration 	-1
attr unit  s
scalar IDSforWSN.node[4].appl 	lastPacketReception 	-2
attr unit  s
scalar IDSforWSN.node[4].appl 	nbPacketsSent 	24
scalar IDSforWSN.node[4].appl 	nbPacketsReceived 	0
statistic IDSforWSN.node[4].appl 	latency
field count 0
field mean 0
field stddev -1.#IND
field sum 0
field sqrsum 0
field min 0
field max 0
scalar IDSforWSN.node[4].batteryStats 	nominal 	10800000
attr unit  mW-s
scalar IDSforWSN.node[4].batteryStats 	total 	6767.8931520227
attr unit  mW-s
scalar IDSforWSN.node[4].batteryStats 	lifetime 	-1
attr unit  s
scalar IDSforWSN.node[4].batteryStats 	"Mean power consumption" 	56.399109600189
attr unit  mW
scalar IDSforWSN.node[5].mobility 	x 	73.350944519
scalar IDSforWSN.node[5].mobility 	y 	62.47713089
scalar IDSforWSN.node[5].nic.mac 	nbTxFrames 	89
scalar IDSforWSN.node[5].nic.mac 	nbRxFrames 	54
scalar IDSforWSN.node[5].nic.mac 	nbDroppedFrames 	0
scalar IDSforWSN.node[5].nic.mac 	nbMissedAcks 	0
scalar IDSforWSN.node[5].nic.mac 	nbRecvdAcks 	0
scalar IDSforWSN.node[5].nic.mac 	nbTxAcks 	0
scalar IDSforWSN.node[5].nic.mac 	nbDuplicates 	0
scalar IDSforWSN.node[5].nic.mac 	meanBackoff 	0.0011112087912088
scalar IDSforWSN.node[5].nic.mac 	nbBackoffs 	91
scalar IDSforWSN.node[5].nic.mac 	backoffDurations 	0.10112
scalar IDSforWSN.node[5].nic.ids 	neighbour27PacketsReceived 	112
scalar IDSforWSN.node[5].nic.ids 	neighbour27PacketsForwarded 	5
scalar IDSforWSN.node[5].nic.ids 	neighbour27isDropperLocal 	1
scalar IDSforWSN.node[5].nic.ids 	neighbour27isDropperGlobal 	1
scalar IDSforWSN.node[5].nic.ids 	neighbour27IntentionalPacketDropping 	0
scalar IDSforWSN.node[5].nic.ids 	neighbour158PacketsReceived 	1
scalar IDSforWSN.node[5].nic.ids 	neighbour158PacketsForwarded 	0
scalar IDSforWSN.node[5].nic.ids 	neighbour158isDropperLocal 	1
scalar IDSforWSN.node[5].nic.ids 	neighbour158isDropperGlobal 	0
scalar IDSforWSN.node[5].nic.ids 	neighbour158IntentionalPacketDropping 	0
scalar IDSforWSN.node[5].nic.ids 	neighbour200PacketsReceived 	1
scalar IDSforWSN.node[5].nic.ids 	neighbour200PacketsForwarded 	0
scalar IDSforWSN.node[5].nic.ids 	neighbour200isDropperLocal 	1
scalar IDSforWSN.node[5].nic.ids 	neighbour200isDropperGlobal 	0
scalar IDSforWSN.node[5].nic.ids 	neighbour200IntentionalPacketDropping 	0
scalar IDSforWSN.node[5].nic.ids 	"Number of neighbors - forwardersMap" 	3
scalar IDSforWSN.node[5].nic.ids 	"Number of neighbors - neighborsSet" 	9
scalar IDSforWSN.node[5].nic.ids 	data_packets_intercepted 	188
scalar IDSforWSN.node[5].nic.ids 	data_packets_me_to_somebody 	79
scalar IDSforWSN.node[5].nic.ids 	data_packets_somebody_to_me 	55
scalar IDSforWSN.node[5].nic.ids 	data_packets_somebody_to_somebody 	54
scalar IDSforWSN.node[5].nic.phy 	nbFramesWithInterference 	1
scalar IDSforWSN.node[5].nic.phy 	nbFramesWithoutInterference 	154
scalar IDSforWSN.node[5].nic.phy 	nbFramesWithInterferencePartial 	91
scalar IDSforWSN.node[5].nic.phy 	nbFramesWithoutInterferencePartial 	6477
scalar IDSforWSN.node[5].nic.phy 	nbFramesWithInterferenceDropped 	12
scalar IDSforWSN.node[5].nic.phy 	nbFramesWithoutInterferenceDropped 	756
scalar IDSforWSN.node[5].netwl 	nbPacketsForwarded 	55
scalar IDSforWSN.node[5].netwl 	nbPacketsReceived 	55
scalar IDSforWSN.node[5].netwl 	nbPacketsSent 	24
scalar IDSforWSN.node[5].netwl 	nbPacketsDropped 	0
scalar IDSforWSN.node[5].tranl 	nbAggrPktReceived 	0
scalar IDSforWSN.node[5].tranl 	"nbAggrPktSentDown " 	0
scalar IDSforWSN.node[5].appl 	"activity duration" 	-1
attr unit  s
scalar IDSforWSN.node[5].appl 	firstPacketGeneration 	-1
attr unit  s
scalar IDSforWSN.node[5].appl 	lastPacketReception 	-2
attr unit  s
scalar IDSforWSN.node[5].appl 	nbPacketsSent 	24
scalar IDSforWSN.node[5].appl 	nbPacketsReceived 	0
statistic IDSforWSN.node[5].appl 	latency
field count 0
field mean 0
field stddev -1.#IND
field sum 0
field sqrsum 0
field min 0
field max 0
scalar IDSforWSN.node[5].batteryStats 	nominal 	10800000
attr unit  mW-s
scalar IDSforWSN.node[5].batteryStats 	total 	6767.7674879935
attr unit  mW-s
scalar IDSforWSN.node[5].batteryStats 	lifetime 	-1
attr unit  s
scalar IDSforWSN.node[5].batteryStats 	"Mean power consumption" 	56.398062399946
attr unit  mW
scalar IDSforWSN.node[6].mobility 	x 	85.156211853
scalar IDSforWSN.node[6].mobility 	y 	32.1804809571
scalar IDSforWSN.node[6].nic.mac 	nbTxFrames 	117
scalar IDSforWSN.node[6].nic.mac 	nbRxFrames 	65
scalar IDSforWSN.node[6].nic.mac 	nbDroppedFrames 	0
scalar IDSforWSN.node[6].nic.mac 	nbMissedAcks 	0
scalar IDSforWSN.node[6].nic.mac 	nbRecvdAcks 	0
scalar IDSforWSN.node[6].nic.mac 	nbTxAcks 	0
scalar IDSforWSN.node[6].nic.mac 	nbDuplicates 	0
scalar IDSforWSN.node[6].nic.mac 	meanBackoff 	0.0012301639344262
scalar IDSforWSN.node[6].nic.mac 	nbBackoffs 	122
scalar IDSforWSN.node[6].nic.mac 	backoffDurations 	0.15008
scalar IDSforWSN.node[6].nic.ids 	neighbour13PacketsReceived 	2
scalar IDSforWSN.node[6].nic.ids 	neighbour13PacketsForwarded 	2
scalar IDSforWSN.node[6].nic.ids 	neighbour13isDropperLocal 	0
scalar IDSforWSN.node[6].nic.ids 	neighbour13isDropperGlobal 	0
scalar IDSforWSN.node[6].nic.ids 	neighbour13IntentionalPacketDropping 	0
scalar IDSforWSN.node[6].nic.ids 	neighbour15PacketsReceived 	43
scalar IDSforWSN.node[6].nic.ids 	neighbour15PacketsForwarded 	20
scalar IDSforWSN.node[6].nic.ids 	neighbour15isDropperLocal 	1
scalar IDSforWSN.node[6].nic.ids 	neighbour15isDropperGlobal 	0
scalar IDSforWSN.node[6].nic.ids 	neighbour15IntentionalPacketDropping 	0
scalar IDSforWSN.node[6].nic.ids 	neighbour194PacketsReceived 	89
scalar IDSforWSN.node[6].nic.ids 	neighbour194PacketsForwarded 	60
scalar IDSforWSN.node[6].nic.ids 	neighbour194isDropperLocal 	1
scalar IDSforWSN.node[6].nic.ids 	neighbour194isDropperGlobal 	1
scalar IDSforWSN.node[6].nic.ids 	neighbour194IntentionalPacketDropping 	0
scalar IDSforWSN.node[6].nic.ids 	neighbour197PacketsReceived 	55
scalar IDSforWSN.node[6].nic.ids 	neighbour197PacketsForwarded 	1
scalar IDSforWSN.node[6].nic.ids 	neighbour197isDropperLocal 	1
scalar IDSforWSN.node[6].nic.ids 	neighbour197isDropperGlobal 	1
scalar IDSforWSN.node[6].nic.ids 	neighbour197IntentionalPacketDropping 	0
scalar IDSforWSN.node[6].nic.ids 	"Number of neighbors - forwardersMap" 	4
scalar IDSforWSN.node[6].nic.ids 	"Number of neighbors - neighborsSet" 	12
scalar IDSforWSN.node[6].nic.ids 	data_packets_intercepted 	389
scalar IDSforWSN.node[6].nic.ids 	data_packets_me_to_somebody 	89
scalar IDSforWSN.node[6].nic.ids 	data_packets_somebody_to_me 	65
scalar IDSforWSN.node[6].nic.ids 	data_packets_somebody_to_somebody 	235
scalar IDSforWSN.node[6].nic.phy 	nbFramesWithInterference 	6
scalar IDSforWSN.node[6].nic.phy 	nbFramesWithoutInterference 	483
scalar IDSforWSN.node[6].nic.phy 	nbFramesWithInterferencePartial 	72
scalar IDSforWSN.node[6].nic.phy 	nbFramesWithoutInterferencePartial 	5145
scalar IDSforWSN.node[6].nic.phy 	nbFramesWithInterferenceDropped 	2
scalar IDSforWSN.node[6].nic.phy 	nbFramesWithoutInterferenceDropped 	609
scalar IDSforWSN.node[6].netwl 	nbPacketsForwarded 	65
scalar IDSforWSN.node[6].netwl 	nbPacketsReceived 	65
scalar IDSforWSN.node[6].netwl 	nbPacketsSent 	24
scalar IDSforWSN.node[6].netwl 	nbPacketsDropped 	0
scalar IDSforWSN.node[6].tranl 	nbAggrPktReceived 	0
scalar IDSforWSN.node[6].tranl 	"nbAggrPktSentDown " 	0
scalar IDSforWSN.node[6].appl 	"activity duration" 	-1
attr unit  s
scalar IDSforWSN.node[6].appl 	firstPacketGeneration 	-1
attr unit  s
scalar IDSforWSN.node[6].appl 	lastPacketReception 	-2
attr unit  s
scalar IDSforWSN.node[6].appl 	nbPacketsSent 	24
scalar IDSforWSN.node[6].appl 	nbPacketsReceived 	0
statistic IDSforWSN.node[6].appl 	latency
field count 0
field mean 0
field stddev -1.#IND
field sum 0
field sqrsum 0
field min 0
field max 0
scalar IDSforWSN.node[6].batteryStats 	nominal 	10800000
attr unit  mW-s
scalar IDSforWSN.node[6].batteryStats 	total 	6767.7043200154
attr unit  mW-s
scalar IDSforWSN.node[6].batteryStats 	lifetime 	-1
attr unit  s
scalar IDSforWSN.node[6].batteryStats 	"Mean power consumption" 	56.397536000128
attr unit  mW
scalar IDSforWSN.node[7].mobility 	x 	50.9394454955
scalar IDSforWSN.node[7].mobility 	y 	3.7467229366
scalar IDSforWSN.node[7].nic.mac 	nbTxFrames 	26
scalar IDSforWSN.node[7].nic.mac 	nbRxFrames 	0
scalar IDSforWSN.node[7].nic.mac 	nbDroppedFrames 	0
scalar IDSforWSN.node[7].nic.mac 	nbMissedAcks 	0
scalar IDSforWSN.node[7].nic.mac 	nbRecvdAcks 	0
scalar IDSforWSN.node[7].nic.mac 	nbTxAcks 	0
scalar IDSforWSN.node[7].nic.mac 	nbDuplicates 	0
scalar IDSforWSN.node[7].nic.mac 	meanBackoff 	0.0011076923076923
scalar IDSforWSN.node[7].nic.mac 	nbBackoffs 	26
scalar IDSforWSN.node[7].nic.mac 	backoffDurations 	0.0288
scalar IDSforWSN.node[7].nic.ids 	neighbour34PacketsReceived 	113
scalar IDSforWSN.node[7].nic.ids 	neighbour34PacketsForwarded 	100
scalar IDSforWSN.node[7].nic.ids 	neighbour34isDropperLocal 	1
scalar IDSforWSN.node[7].nic.ids 	neighbour34isDropperGlobal 	0
scalar IDSforWSN.node[7].nic.ids 	neighbour34IntentionalPacketDropping 	0
scalar IDSforWSN.node[7].nic.ids 	"Number of neighbors - forwardersMap" 	1
scalar IDSforWSN.node[7].nic.ids 	"Number of neighbors - neighborsSet" 	4
scalar IDSforWSN.node[7].nic.ids 	data_packets_intercepted 	259
scalar IDSforWSN.node[7].nic.ids 	data_packets_me_to_somebody 	24
scalar IDSforWSN.node[7].nic.ids 	data_packets_somebody_to_me 	0
scalar IDSforWSN.node[7].nic.ids 	data_packets_somebody_to_somebody 	235
scalar IDSforWSN.node[7].nic.phy 	nbFramesWithInterference 	1
scalar IDSforWSN.node[7].nic.phy 	nbFramesWithoutInterference 	288
scalar IDSforWSN.node[7].nic.phy 	nbFramesWithInterferencePartial 	14
scalar IDSforWSN.node[7].nic.phy 	nbFramesWithoutInterferencePartial 	2498
scalar IDSforWSN.node[7].nic.phy 	nbFramesWithInterferenceDropped 	1
scalar IDSforWSN.node[7].nic.phy 	nbFramesWithoutInterferenceDropped 	154
scalar IDSforWSN.node[7].netwl 	nbPacketsForwarded 	0
scalar IDSforWSN.node[7].netwl 	nbPacketsReceived 	0
scalar IDSforWSN.node[7].netwl 	nbPacketsSent 	24
scalar IDSforWSN.node[7].netwl 	nbPacketsDropped 	0
scalar IDSforWSN.node[7].tranl 	nbAggrPktReceived 	0
scalar IDSforWSN.node[7].tranl 	"nbAggrPktSentDown " 	0
scalar IDSforWSN.node[7].appl 	"activity duration" 	-1
attr unit  s
scalar IDSforWSN.node[7].appl 	firstPacketGeneration 	-1
attr unit  s
scalar IDSforWSN.node[7].appl 	lastPacketReception 	-2
attr unit  s
scalar IDSforWSN.node[7].appl 	nbPacketsSent 	24
scalar IDSforWSN.node[7].appl 	nbPacketsReceived 	0
statistic IDSforWSN.node[7].appl 	latency
field count 0
field mean 0
field stddev -1.#IND
field sum 0
field sqrsum 0
field min 0
field max 0
scalar IDSforWSN.node[7].batteryStats 	nominal 	10800000
attr unit  mW-s
scalar IDSforWSN.node[7].batteryStats 	total 	6767.9314559959
attr unit  mW-s
scalar IDSforWSN.node[7].batteryStats 	lifetime 	-1
attr unit  s
scalar IDSforWSN.node[7].batteryStats 	"Mean power consumption" 	56.399428799966
attr unit  mW
scalar IDSforWSN.node[8].mobility 	x 	47.9850692749
scalar IDSforWSN.node[8].mobility 	y 	52.3956947325
scalar IDSforWSN.node[8].nic.mac 	nbTxFrames 	63
scalar IDSforWSN.node[8].nic.mac 	nbRxFrames 	35
scalar IDSforWSN.node[8].nic.mac 	nbDroppedFrames 	0
scalar IDSforWSN.node[8].nic.mac 	nbMissedAcks 	0
scalar IDSforWSN.node[8].nic.mac 	nbRecvdAcks 	0
scalar IDSforWSN.node[8].nic.mac 	nbTxAcks 	0
scalar IDSforWSN.node[8].nic.mac 	nbDuplicates 	0
scalar IDSforWSN.node[8].nic.mac 	meanBackoff 	0.001152
scalar IDSforWSN.node[8].nic.mac 	nbBackoffs 	65
scalar IDSforWSN.node[8].nic.mac 	backoffDurations 	0.07488
scalar IDSforWSN.node[8].nic.ids 	neighbour54PacketsReceived 	1
scalar IDSforWSN.node[8].nic.ids 	neighbour54PacketsForwarded 	1
scalar IDSforWSN.node[8].nic.ids 	neighbour54isDropperLocal 	0
scalar IDSforWSN.node[8].nic.ids 	neighbour54isDropperGlobal 	0
scalar IDSforWSN.node[8].nic.ids 	neighbour54IntentionalPacketDropping 	0
scalar IDSforWSN.node[8].nic.ids 	neighbour108PacketsReceived 	3
scalar IDSforWSN.node[8].nic.ids 	neighbour108PacketsForwarded 	0
scalar IDSforWSN.node[8].nic.ids 	neighbour108isDropperLocal 	1
scalar IDSforWSN.node[8].nic.ids 	neighbour108isDropperGlobal 	0
scalar IDSforWSN.node[8].nic.ids 	neighbour108IntentionalPacketDropping 	0.8
scalar IDSforWSN.node[8].nic.ids 	"Number of neighbors - forwardersMap" 	2
scalar IDSforWSN.node[8].nic.ids 	"Number of neighbors - neighborsSet" 	10
scalar IDSforWSN.node[8].nic.ids 	data_packets_intercepted 	736
scalar IDSforWSN.node[8].nic.ids 	data_packets_me_to_somebody 	60
scalar IDSforWSN.node[8].nic.ids 	data_packets_somebody_to_me 	36
scalar IDSforWSN.node[8].nic.ids 	data_packets_somebody_to_somebody 	640
scalar IDSforWSN.node[8].nic.phy 	nbFramesWithInterference 	5
scalar IDSforWSN.node[8].nic.phy 	nbFramesWithoutInterference 	738
scalar IDSforWSN.node[8].nic.phy 	nbFramesWithInterferencePartial 	152
scalar IDSforWSN.node[8].nic.phy 	nbFramesWithoutInterferencePartial 	7489
scalar IDSforWSN.node[8].nic.phy 	nbFramesWithInterferenceDropped 	18
scalar IDSforWSN.node[8].nic.phy 	nbFramesWithoutInterferenceDropped 	1087
scalar IDSforWSN.node[8].netwl 	nbPacketsForwarded 	36
scalar IDSforWSN.node[8].netwl 	nbPacketsReceived 	36
scalar IDSforWSN.node[8].netwl 	nbPacketsSent 	24
scalar IDSforWSN.node[8].netwl 	nbPacketsDropped 	0
scalar IDSforWSN.node[8].tranl 	nbAggrPktReceived 	0
scalar IDSforWSN.node[8].tranl 	"nbAggrPktSentDown " 	0
scalar IDSforWSN.node[8].appl 	"activity duration" 	-1
attr unit  s
scalar IDSforWSN.node[8].appl 	firstPacketGeneration 	-1
attr unit  s
scalar IDSforWSN.node[8].appl 	lastPacketReception 	-2
attr unit  s
scalar IDSforWSN.node[8].appl 	nbPacketsSent 	24
scalar IDSforWSN.node[8].appl 	nbPacketsReceived 	0
statistic IDSforWSN.node[8].appl 	latency
field count 0
field mean 0
field stddev -1.#IND
field sum 0
field sqrsum 0
field min 0
field max 0
scalar IDSforWSN.node[8].batteryStats 	nominal 	10800000
attr unit  mW-s
scalar IDSforWSN.node[8].batteryStats 	total 	6767.8326719962
attr unit  mW-s
scalar IDSforWSN.node[8].batteryStats 	lifetime 	-1
attr unit  s
scalar IDSforWSN.node[8].batteryStats 	"Mean power consumption" 	56.398605599968
attr unit  mW
scalar IDSforWSN.node[9].mobility 	x 	64.4732818605
scalar IDSforWSN.node[9].mobility 	y 	33.5536079407
scalar IDSforWSN.node[9].nic.mac 	nbTxFrames 	132
scalar IDSforWSN.node[9].nic.mac 	nbRxFrames 	16
scalar IDSforWSN.node[9].nic.mac 	nbDroppedFrames 	0
scalar IDSforWSN.node[9].nic.mac 	nbMissedAcks 	0
scalar IDSforWSN.node[9].nic.mac 	nbRecvdAcks 	0
scalar IDSforWSN.node[9].nic.mac 	nbTxAcks 	0
scalar IDSforWSN.node[9].nic.mac 	nbDuplicates 	0
scalar IDSforWSN.node[9].nic.mac 	meanBackoff 	0.0012235294117647
scalar IDSforWSN.node[9].nic.mac 	nbBackoffs 	136
scalar IDSforWSN.node[9].nic.mac 	backoffDurations 	0.1664
scalar IDSforWSN.node[9].nic.ids 	neighbour93PacketsReceived 	5
scalar IDSforWSN.node[9].nic.ids 	neighbour93PacketsForwarded 	1
scalar IDSforWSN.node[9].nic.ids 	neighbour93isDropperLocal 	1
scalar IDSforWSN.node[9].nic.ids 	neighbour93isDropperGlobal 	0
scalar IDSforWSN.node[9].nic.ids 	neighbour93IntentionalPacketDropping 	0
scalar IDSforWSN.node[9].nic.ids 	neighbour116PacketsReceived 	350
scalar IDSforWSN.node[9].nic.ids 	neighbour116PacketsForwarded 	60
scalar IDSforWSN.node[9].nic.ids 	neighbour116isDropperLocal 	1
scalar IDSforWSN.node[9].nic.ids 	neighbour116isDropperGlobal 	0
scalar IDSforWSN.node[9].nic.ids 	neighbour116IntentionalPacketDropping 	0
scalar IDSforWSN.node[9].nic.ids 	neighbour136PacketsReceived 	21
scalar IDSforWSN.node[9].nic.ids 	neighbour136PacketsForwarded 	12
scalar IDSforWSN.node[9].nic.ids 	neighbour136isDropperLocal 	1
scalar IDSforWSN.node[9].nic.ids 	neighbour136isDropperGlobal 	0
scalar IDSforWSN.node[9].nic.ids 	neighbour136IntentionalPacketDropping 	0
scalar IDSforWSN.node[9].nic.ids 	neighbour236PacketsReceived 	23
scalar IDSforWSN.node[9].nic.ids 	neighbour236PacketsForwarded 	22
scalar IDSforWSN.node[9].nic.ids 	neighbour236isDropperLocal 	1
scalar IDSforWSN.node[9].nic.ids 	neighbour236isDropperGlobal 	0
scalar IDSforWSN.node[9].nic.ids 	neighbour236IntentionalPacketDropping 	0
scalar IDSforWSN.node[9].nic.ids 	neighbour241PacketsReceived 	235
scalar IDSforWSN.node[9].nic.ids 	neighbour241PacketsForwarded 	185
scalar IDSforWSN.node[9].nic.ids 	neighbour241isDropperLocal 	0
scalar IDSforWSN.node[9].nic.ids 	neighbour241isDropperGlobal 	0
scalar IDSforWSN.node[9].nic.ids 	neighbour241IntentionalPacketDropping 	0
scalar IDSforWSN.node[9].nic.ids 	"Number of neighbors - forwardersMap" 	5
scalar IDSforWSN.node[9].nic.ids 	"Number of neighbors - neighborsSet" 	13
scalar IDSforWSN.node[9].nic.ids 	data_packets_intercepted 	775
scalar IDSforWSN.node[9].nic.ids 	data_packets_me_to_somebody 	40
scalar IDSforWSN.node[9].nic.ids 	data_packets_somebody_to_me 	16
scalar IDSforWSN.node[9].nic.ids 	data_packets_somebody_to_somebody 	719
scalar IDSforWSN.node[9].nic.phy 	nbFramesWithInterference 	16
scalar IDSforWSN.node[9].nic.phy 	nbFramesWithoutInterference 	1379
scalar IDSforWSN.node[9].nic.phy 	nbFramesWithInterferencePartial 	101
scalar IDSforWSN.node[9].nic.phy 	nbFramesWithoutInterferencePartial 	5297
scalar IDSforWSN.node[9].nic.phy 	nbFramesWithInterferenceDropped 	9
scalar IDSforWSN.node[9].nic.phy 	nbFramesWithoutInterferenceDropped 	1107
scalar IDSforWSN.node[9].netwl 	nbPacketsForwarded 	16
scalar IDSforWSN.node[9].netwl 	nbPacketsReceived 	16
scalar IDSforWSN.node[9].netwl 	nbPacketsSent 	24
scalar IDSforWSN.node[9].netwl 	nbPacketsDropped 	0
scalar IDSforWSN.node[9].tranl 	nbAggrPktReceived 	0
scalar IDSforWSN.node[9].tranl 	"nbAggrPktSentDown " 	0
scalar IDSforWSN.node[9].appl 	"activity duration" 	-1
attr unit  s
scalar IDSforWSN.node[9].appl 	firstPacketGeneration 	-1
attr unit  s
scalar IDSforWSN.node[9].appl 	lastPacketReception 	-2
attr unit  s
scalar IDSforWSN.node[9].appl 	nbPacketsSent 	24
scalar IDSforWSN.node[9].appl 	nbPacketsReceived 	0
statistic IDSforWSN.node[9].appl 	latency
field count 0
field mean 0
field stddev -1.#IND
field sum 0
field sqrsum 0
field min 0
field max 0
scalar IDSforWSN.node[9].batteryStats 	nominal 	10800000
attr unit  mW-s
scalar IDSforWSN.node[9].batteryStats 	total 	6767.7070081215
attr unit  mW-s
scalar IDSforWSN.node[9].batteryStats 	lifetime 	-1
attr unit  s
scalar IDSforWSN.node[9].batteryStats 	"Mean power consumption" 	56.397558401013
attr unit  mW
scalar IDSforWSN.node[10].mobility 	x 	17.7512187958
scalar IDSforWSN.node[10].mobility 	y 	65.9177703855
scalar IDSforWSN.node[10].nic.mac 	nbTxFrames 	48
scalar IDSforWSN.node[10].nic.mac 	nbRxFrames 	0
scalar IDSforWSN.node[10].nic.mac 	nbDroppedFrames 	0
scalar IDSforWSN.node[10].nic.mac 	nbMissedAcks 	0
scalar IDSforWSN.node[10].nic.mac 	nbRecvdAcks 	0
scalar IDSforWSN.node[10].nic.mac 	nbTxAcks 	0
scalar IDSforWSN.node[10].nic.mac 	nbDuplicates 	0
scalar IDSforWSN.node[10].nic.mac 	meanBackoff 	0.0010944
scalar IDSforWSN.node[10].nic.mac 	nbBackoffs 	50
scalar IDSforWSN.node[10].nic.mac 	backoffDurations 	0.05472
scalar IDSforWSN.node[10].nic.ids 	neighbour18PacketsReceived 	7
scalar IDSforWSN.node[10].nic.ids 	neighbour18PacketsForwarded 	6
scalar IDSforWSN.node[10].nic.ids 	neighbour18isDropperLocal 	0
scalar IDSforWSN.node[10].nic.ids 	neighbour18isDropperGlobal 	0
scalar IDSforWSN.node[10].nic.ids 	neighbour18IntentionalPacketDropping 	0
scalar IDSforWSN.node[10].nic.ids 	neighbour20PacketsReceived 	46
scalar IDSforWSN.node[10].nic.ids 	neighbour20PacketsForwarded 	0
scalar IDSforWSN.node[10].nic.ids 	neighbour20isDropperLocal 	1
scalar IDSforWSN.node[10].nic.ids 	neighbour20isDropperGlobal 	1
scalar IDSforWSN.node[10].nic.ids 	neighbour20IntentionalPacketDropping 	0
scalar IDSforWSN.node[10].nic.ids 	neighbour88PacketsReceived 	22
scalar IDSforWSN.node[10].nic.ids 	neighbour88PacketsForwarded 	21
scalar IDSforWSN.node[10].nic.ids 	neighbour88isDropperLocal 	1
scalar IDSforWSN.node[10].nic.ids 	neighbour88isDropperGlobal 	0
scalar IDSforWSN.node[10].nic.ids 	neighbour88IntentionalPacketDropping 	0
scalar IDSforWSN.node[10].nic.ids 	neighbour148PacketsReceived 	32
scalar IDSforWSN.node[10].nic.ids 	neighbour148PacketsForwarded 	4
scalar IDSforWSN.node[10].nic.ids 	neighbour148isDropperLocal 	1
scalar IDSforWSN.node[10].nic.ids 	neighbour148isDropperGlobal 	1
scalar IDSforWSN.node[10].nic.ids 	neighbour148IntentionalPacketDropping 	0
scalar IDSforWSN.node[10].nic.ids 	neighbour190PacketsReceived 	55
scalar IDSforWSN.node[10].nic.ids 	neighbour190PacketsForwarded 	30
scalar IDSforWSN.node[10].nic.ids 	neighbour190isDropperLocal 	1
scalar IDSforWSN.node[10].nic.ids 	neighbour190isDropperGlobal 	1
scalar IDSforWSN.node[10].nic.ids 	neighbour190IntentionalPacketDropping 	0
scalar IDSforWSN.node[10].nic.ids 	"Number of neighbors - forwardersMap" 	5
scalar IDSforWSN.node[10].nic.ids 	"Number of neighbors - neighborsSet" 	13
scalar IDSforWSN.node[10].nic.ids 	data_packets_intercepted 	343
scalar IDSforWSN.node[10].nic.ids 	data_packets_me_to_somebody 	24
scalar IDSforWSN.node[10].nic.ids 	data_packets_somebody_to_me 	0
scalar IDSforWSN.node[10].nic.ids 	data_packets_somebody_to_somebody 	319
scalar IDSforWSN.node[10].nic.phy 	nbFramesWithInterference 	4
scalar IDSforWSN.node[10].nic.phy 	nbFramesWithoutInterference 	551
scalar IDSforWSN.node[10].nic.phy 	nbFramesWithInterferencePartial 	63
scalar IDSforWSN.node[10].nic.phy 	nbFramesWithoutInterferencePartial 	4903
scalar IDSforWSN.node[10].nic.phy 	nbFramesWithInterferenceDropped 	5
scalar IDSforWSN.node[10].nic.phy 	nbFramesWithoutInterferenceDropped 	549
scalar IDSforWSN.node[10].netwl 	nbPacketsForwarded 	0
scalar IDSforWSN.node[10].netwl 	nbPacketsReceived 	0
scalar IDSforWSN.node[10].netwl 	nbPacketsSent 	24
scalar IDSforWSN.node[10].netwl 	nbPacketsDropped 	0
scalar IDSforWSN.node[10].tranl 	nbAggrPktReceived 	0
scalar IDSforWSN.node[10].tranl 	"nbAggrPktSentDown " 	0
scalar IDSforWSN.node[10].appl 	"activity duration" 	-1
attr unit  s
scalar IDSforWSN.node[10].appl 	firstPacketGeneration 	-1
attr unit  s
scalar IDSforWSN.node[10].appl 	lastPacketReception 	-2
attr unit  s
scalar IDSforWSN.node[10].appl 	nbPacketsSent 	24
scalar IDSforWSN.node[10].appl 	nbPacketsReceived 	0
statistic IDSforWSN.node[10].appl 	latency
field count 0
field mean 0
field stddev -1.#IND
field sum 0
field sqrsum 0
field min 0
field max 0
scalar IDSforWSN.node[10].batteryStats 	nominal 	10800000
attr unit  mW-s
scalar IDSforWSN.node[10].batteryStats 	total 	6767.887104027
attr unit  mW-s
scalar IDSforWSN.node[10].batteryStats 	lifetime 	-1
attr unit  s
scalar IDSforWSN.node[10].batteryStats 	"Mean power consumption" 	56.399059200225
attr unit  mW
scalar IDSforWSN.node[11].mobility 	x 	16.9322528839
scalar IDSforWSN.node[11].mobility 	y 	45.9124984741
scalar IDSforWSN.node[11].nic.mac 	nbTxFrames 	75
scalar IDSforWSN.node[11].nic.mac 	nbRxFrames 	0
scalar IDSforWSN.node[11].nic.mac 	nbDroppedFrames 	0
scalar IDSforWSN.node[11].nic.mac 	nbMissedAcks 	0
scalar IDSforWSN.node[11].nic.mac 	nbRecvdAcks 	0
scalar IDSforWSN.node[11].nic.mac 	nbTxAcks 	0
scalar IDSforWSN.node[11].nic.mac 	nbDuplicates 	0
scalar IDSforWSN.node[11].nic.mac 	meanBackoff 	0.001116
scalar IDSforWSN.node[11].nic.mac 	nbBackoffs 	80
scalar IDSforWSN.node[11].nic.mac 	backoffDurations 	0.08928
scalar IDSforWSN.node[11].nic.ids 	neighbour76PacketsReceived 	206
scalar IDSforWSN.node[11].nic.ids 	neighbour76PacketsForwarded 	74
scalar IDSforWSN.node[11].nic.ids 	neighbour76isDropperLocal 	1
scalar IDSforWSN.node[11].nic.ids 	neighbour76isDropperGlobal 	1
scalar IDSforWSN.node[11].nic.ids 	neighbour76IntentionalPacketDropping 	0
scalar IDSforWSN.node[11].nic.ids 	neighbour105PacketsReceived 	134
scalar IDSforWSN.node[11].nic.ids 	neighbour105PacketsForwarded 	81
scalar IDSforWSN.node[11].nic.ids 	neighbour105isDropperLocal 	1
scalar IDSforWSN.node[11].nic.ids 	neighbour105isDropperGlobal 	1
scalar IDSforWSN.node[11].nic.ids 	neighbour105IntentionalPacketDropping 	0
scalar IDSforWSN.node[11].nic.ids 	neighbour106PacketsReceived 	53
scalar IDSforWSN.node[11].nic.ids 	neighbour106PacketsForwarded 	28
scalar IDSforWSN.node[11].nic.ids 	neighbour106isDropperLocal 	1
scalar IDSforWSN.node[11].nic.ids 	neighbour106isDropperGlobal 	1
scalar IDSforWSN.node[11].nic.ids 	neighbour106IntentionalPacketDropping 	0
scalar IDSforWSN.node[11].nic.ids 	neighbour117PacketsReceived 	10
scalar IDSforWSN.node[11].nic.ids 	neighbour117PacketsForwarded 	2
scalar IDSforWSN.node[11].nic.ids 	neighbour117isDropperLocal 	1
scalar IDSforWSN.node[11].nic.ids 	neighbour117isDropperGlobal 	0
scalar IDSforWSN.node[11].nic.ids 	neighbour117IntentionalPacketDropping 	0
scalar IDSforWSN.node[11].nic.ids 	neighbour176PacketsReceived 	17
scalar IDSforWSN.node[11].nic.ids 	neighbour176PacketsForwarded 	16
scalar IDSforWSN.node[11].nic.ids 	neighbour176isDropperLocal 	1
scalar IDSforWSN.node[11].nic.ids 	neighbour176isDropperGlobal 	0
scalar IDSforWSN.node[11].nic.ids 	neighbour176IntentionalPacketDropping 	0
scalar IDSforWSN.node[11].nic.ids 	neighbour201PacketsReceived 	7
scalar IDSforWSN.node[11].nic.ids 	neighbour201PacketsForwarded 	7
scalar IDSforWSN.node[11].nic.ids 	neighbour201isDropperLocal 	0
scalar IDSforWSN.node[11].nic.ids 	neighbour201isDropperGlobal 	0
scalar IDSforWSN.node[11].nic.ids 	neighbour201IntentionalPacketDropping 	0
scalar IDSforWSN.node[11].nic.ids 	"Number of neighbors - forwardersMap" 	6
scalar IDSforWSN.node[11].nic.ids 	"Number of neighbors - neighborsSet" 	15
scalar IDSforWSN.node[11].nic.ids 	data_packets_intercepted 	709
scalar IDSforWSN.node[11].nic.ids 	data_packets_me_to_somebody 	24
scalar IDSforWSN.node[11].nic.ids 	data_packets_somebody_to_me 	0
scalar IDSforWSN.node[11].nic.ids 	data_packets_somebody_to_somebody 	685
scalar IDSforWSN.node[11].nic.phy 	nbFramesWithInterference 	4
scalar IDSforWSN.node[11].nic.phy 	nbFramesWithoutInterference 	1130
scalar IDSforWSN.node[11].nic.phy 	nbFramesWithInterferencePartial 	55
scalar IDSforWSN.node[11].nic.phy 	nbFramesWithoutInterferencePartial 	4142
scalar IDSforWSN.node[11].nic.phy 	nbFramesWithInterferenceDropped 	5
scalar IDSforWSN.node[11].nic.phy 	nbFramesWithoutInterferenceDropped 	628
scalar IDSforWSN.node[11].netwl 	nbPacketsForwarded 	0
scalar IDSforWSN.node[11].netwl 	nbPacketsReceived 	0
scalar IDSforWSN.node[11].netwl 	nbPacketsSent 	24
scalar IDSforWSN.node[11].netwl 	nbPacketsDropped 	0
scalar IDSforWSN.node[11].tranl 	nbAggrPktReceived 	0
scalar IDSforWSN.node[11].tranl 	"nbAggrPktSentDown " 	0
scalar IDSforWSN.node[11].appl 	"activity duration" 	-1
attr unit  s
scalar IDSforWSN.node[11].appl 	firstPacketGeneration 	-1
attr unit  s
scalar IDSforWSN.node[11].appl 	lastPacketReception 	-2
attr unit  s
scalar IDSforWSN.node[11].appl 	nbPacketsSent 	24
scalar IDSforWSN.node[11].appl 	nbPacketsReceived 	0
statistic IDSforWSN.node[11].appl 	latency
field count 0
field mean 0
field stddev -1.#IND
field sum 0
field sqrsum 0
field min 0
field max 0
scalar IDSforWSN.node[11].batteryStats 	nominal 	10800000
attr unit  mW-s
scalar IDSforWSN.node[11].batteryStats 	total 	6767.8326720633
attr unit  mW-s
scalar IDSforWSN.node[11].batteryStats 	lifetime 	-1
attr unit  s
scalar IDSforWSN.node[11].batteryStats 	"Mean power consumption" 	56.398605600527
attr unit  mW
scalar IDSforWSN.node[12].mobility 	x 	54.88369751
scalar IDSforWSN.node[12].mobility 	y 	29.0726890564
scalar IDSforWSN.node[12].nic.mac 	nbTxFrames 	42
scalar IDSforWSN.node[12].nic.mac 	nbRxFrames 	0
scalar IDSforWSN.node[12].nic.mac 	nbDroppedFrames 	0
scalar IDSforWSN.node[12].nic.mac 	nbMissedAcks 	0
scalar IDSforWSN.node[12].nic.mac 	nbRecvdAcks 	0
scalar IDSforWSN.node[12].nic.mac 	nbTxAcks 	0
scalar IDSforWSN.node[12].nic.mac 	nbDuplicates 	0
scalar IDSforWSN.node[12].nic.mac 	meanBackoff 	0.0012279069767442
scalar IDSforWSN.node[12].nic.mac 	nbBackoffs 	43
scalar IDSforWSN.node[12].nic.mac 	backoffDurations 	0.0528
scalar IDSforWSN.node[12].nic.ids 	neighbour116PacketsReceived 	2
scalar IDSforWSN.node[12].nic.ids 	neighbour116PacketsForwarded 	0
scalar IDSforWSN.node[12].nic.ids 	neighbour116isDropperLocal 	1
scalar IDSforWSN.node[12].nic.ids 	neighbour116isDropperGlobal 	1
scalar IDSforWSN.node[12].nic.ids 	neighbour116IntentionalPacketDropping 	0
scalar IDSforWSN.node[12].nic.ids 	neighbour136PacketsReceived 	15
scalar IDSforWSN.node[12].nic.ids 	neighbour136PacketsForwarded 	10
scalar IDSforWSN.node[12].nic.ids 	neighbour136isDropperLocal 	1
scalar IDSforWSN.node[12].nic.ids 	neighbour136isDropperGlobal 	0
scalar IDSforWSN.node[12].nic.ids 	neighbour136IntentionalPacketDropping 	0
scalar IDSforWSN.node[12].nic.ids 	neighbour186PacketsReceived 	2
scalar IDSforWSN.node[12].nic.ids 	neighbour186PacketsForwarded 	0
scalar IDSforWSN.node[12].nic.ids 	neighbour186isDropperLocal 	1
scalar IDSforWSN.node[12].nic.ids 	neighbour186isDropperGlobal 	0
scalar IDSforWSN.node[12].nic.ids 	neighbour186IntentionalPacketDropping 	0
scalar IDSforWSN.node[12].nic.ids 	neighbour239PacketsReceived 	161
scalar IDSforWSN.node[12].nic.ids 	neighbour239PacketsForwarded 	127
scalar IDSforWSN.node[12].nic.ids 	neighbour239isDropperLocal 	1
scalar IDSforWSN.node[12].nic.ids 	neighbour239isDropperGlobal 	1
scalar IDSforWSN.node[12].nic.ids 	neighbour239IntentionalPacketDropping 	0
scalar IDSforWSN.node[12].nic.ids 	neighbour241PacketsReceived 	4
scalar IDSforWSN.node[12].nic.ids 	neighbour241PacketsForwarded 	1
scalar IDSforWSN.node[12].nic.ids 	neighbour241isDropperLocal 	1
scalar IDSforWSN.node[12].nic.ids 	neighbour241isDropperGlobal 	1
scalar IDSforWSN.node[12].nic.ids 	neighbour241IntentionalPacketDropping 	0
scalar IDSforWSN.node[12].nic.ids 	"Number of neighbors - forwardersMap" 	5
scalar IDSforWSN.node[12].nic.ids 	"Number of neighbors - neighborsSet" 	13
scalar IDSforWSN.node[12].nic.ids 	data_packets_intercepted 	450
scalar IDSforWSN.node[12].nic.ids 	data_packets_me_to_somebody 	24
scalar IDSforWSN.node[12].nic.ids 	data_packets_somebody_to_me 	0
scalar IDSforWSN.node[12].nic.ids 	data_packets_somebody_to_somebody 	426
scalar IDSforWSN.node[12].nic.phy 	nbFramesWithInterference 	3
scalar IDSforWSN.node[12].nic.phy 	nbFramesWithoutInterference 	688
scalar IDSforWSN.node[12].nic.phy 	nbFramesWithInterferencePartial 	103
scalar IDSforWSN.node[12].nic.phy 	nbFramesWithoutInterferencePartial 	5784
scalar IDSforWSN.node[12].nic.phy 	nbFramesWithInterferenceDropped 	6
scalar IDSforWSN.node[12].nic.phy 	nbFramesWithoutInterferenceDropped 	1123
scalar IDSforWSN.node[12].netwl 	nbPacketsForwarded 	0
scalar IDSforWSN.node[12].netwl 	nbPacketsReceived 	0
scalar IDSforWSN.node[12].netwl 	nbPacketsSent 	24
scalar IDSforWSN.node[12].netwl 	nbPacketsDropped 	0
scalar IDSforWSN.node[12].tranl 	nbAggrPktReceived 	0
scalar IDSforWSN.node[12].tranl 	"nbAggrPktSentDown " 	0
scalar IDSforWSN.node[12].appl 	"activity duration" 	-1
attr unit  s
scalar IDSforWSN.node[12].appl 	firstPacketGeneration 	-1
attr unit  s
scalar IDSforWSN.node[12].appl 	lastPacketReception 	-2
attr unit  s
scalar IDSforWSN.node[12].appl 	nbPacketsSent 	24
scalar IDSforWSN.node[12].appl 	nbPacketsReceived 	0
statistic IDSforWSN.node[12].appl 	latency
field count 0
field mean 0
field stddev -1.#IND
field sum 0
field sqrsum 0
field min 0
field max 0
scalar IDSforWSN.node[12].batteryStats 	nominal 	10800000
attr unit  mW-s
scalar IDSforWSN.node[12].batteryStats 	total 	6767.8992000129
attr unit  mW-s
scalar IDSforWSN.node[12].batteryStats 	lifetime 	-1
attr unit  s
scalar IDSforWSN.node[12].batteryStats 	"Mean power consumption" 	56.399160000108
attr unit  mW
scalar IDSforWSN.node[13].mobility 	x 	84.3854904175
scalar IDSforWSN.node[13].mobility 	y 	23.99792099
scalar IDSforWSN.node[13].nic.mac 	nbTxFrames 	96
scalar IDSforWSN.node[13].nic.mac 	nbRxFrames 	24
scalar IDSforWSN.node[13].nic.mac 	nbDroppedFrames 	0
scalar IDSforWSN.node[13].nic.mac 	nbMissedAcks 	0
scalar IDSforWSN.node[13].nic.mac 	nbRecvdAcks 	0
scalar IDSforWSN.node[13].nic.mac 	nbTxAcks 	0
scalar IDSforWSN.node[13].nic.mac 	nbDuplicates 	0
scalar IDSforWSN.node[13].nic.mac 	meanBackoff 	0.0010754639175258
scalar IDSforWSN.node[13].nic.mac 	nbBackoffs 	97
scalar IDSforWSN.node[13].nic.mac 	backoffDurations 	0.10432
scalar IDSforWSN.node[13].nic.ids 	neighbour6PacketsReceived 	68
scalar IDSforWSN.node[13].nic.ids 	neighbour6PacketsForwarded 	53
scalar IDSforWSN.node[13].nic.ids 	neighbour6isDropperLocal 	1
scalar IDSforWSN.node[13].nic.ids 	neighbour6isDropperGlobal 	0
scalar IDSforWSN.node[13].nic.ids 	neighbour6IntentionalPacketDropping 	0
scalar IDSforWSN.node[13].nic.ids 	neighbour73PacketsReceived 	13
scalar IDSforWSN.node[13].nic.ids 	neighbour73PacketsForwarded 	0
scalar IDSforWSN.node[13].nic.ids 	neighbour73isDropperLocal 	1
scalar IDSforWSN.node[13].nic.ids 	neighbour73isDropperGlobal 	1
scalar IDSforWSN.node[13].nic.ids 	neighbour73IntentionalPacketDropping 	0
scalar IDSforWSN.node[13].nic.ids 	neighbour81PacketsReceived 	84
scalar IDSforWSN.node[13].nic.ids 	neighbour81PacketsForwarded 	83
scalar IDSforWSN.node[13].nic.ids 	neighbour81isDropperLocal 	1
scalar IDSforWSN.node[13].nic.ids 	neighbour81isDropperGlobal 	0
scalar IDSforWSN.node[13].nic.ids 	neighbour81IntentionalPacketDropping 	0
scalar IDSforWSN.node[13].nic.ids 	neighbour142PacketsReceived 	10
scalar IDSforWSN.node[13].nic.ids 	neighbour142PacketsForwarded 	9
scalar IDSforWSN.node[13].nic.ids 	neighbour142isDropperLocal 	1
scalar IDSforWSN.node[13].nic.ids 	neighbour142isDropperGlobal 	0
scalar IDSforWSN.node[13].nic.ids 	neighbour142IntentionalPacketDropping 	0
scalar IDSforWSN.node[13].nic.ids 	neighbour197PacketsReceived 	251
scalar IDSforWSN.node[13].nic.ids 	neighbour197PacketsForwarded 	43
scalar IDSforWSN.node[13].nic.ids 	neighbour197isDropperLocal 	1
scalar IDSforWSN.node[13].nic.ids 	neighbour197isDropperGlobal 	1
scalar IDSforWSN.node[13].nic.ids 	neighbour197IntentionalPacketDropping 	0
scalar IDSforWSN.node[13].nic.ids 	"Number of neighbors - forwardersMap" 	5
scalar IDSforWSN.node[13].nic.ids 	"Number of neighbors - neighborsSet" 	12
scalar IDSforWSN.node[13].nic.ids 	data_packets_intercepted 	576
scalar IDSforWSN.node[13].nic.ids 	data_packets_me_to_somebody 	48
scalar IDSforWSN.node[13].nic.ids 	data_packets_somebody_to_me 	24
scalar IDSforWSN.node[13].nic.ids 	data_packets_somebody_to_somebody 	504
scalar IDSforWSN.node[13].nic.phy 	nbFramesWithInterference 	6
scalar IDSforWSN.node[13].nic.phy 	nbFramesWithoutInterference 	794
scalar IDSforWSN.node[13].nic.phy 	nbFramesWithInterferencePartial 	53
scalar IDSforWSN.node[13].nic.phy 	nbFramesWithoutInterferencePartial 	4162
scalar IDSforWSN.node[13].nic.phy 	nbFramesWithInterferenceDropped 	5
scalar IDSforWSN.node[13].nic.phy 	nbFramesWithoutInterferenceDropped 	628
scalar IDSforWSN.node[13].netwl 	nbPacketsForwarded 	24
scalar IDSforWSN.node[13].netwl 	nbPacketsReceived 	24
scalar IDSforWSN.node[13].netwl 	nbPacketsSent 	24
scalar IDSforWSN.node[13].netwl 	nbPacketsDropped 	0
scalar IDSforWSN.node[13].tranl 	nbAggrPktReceived 	0
scalar IDSforWSN.node[13].tranl 	"nbAggrPktSentDown " 	0
scalar IDSforWSN.node[13].appl 	"activity duration" 	-1
attr unit  s
scalar IDSforWSN.node[13].appl 	firstPacketGeneration 	-1
attr unit  s
scalar IDSforWSN.node[13].appl 	lastPacketReception 	-2
attr unit  s
scalar IDSforWSN.node[13].appl 	nbPacketsSent 	24
scalar IDSforWSN.node[13].appl 	nbPacketsReceived 	0
statistic IDSforWSN.node[13].appl 	latency
field count 0
field mean 0
field stddev -1.#IND
field sum 0
field sqrsum 0
field min 0
field max 0
scalar IDSforWSN.node[13].batteryStats 	nominal 	10800000
attr unit  mW-s
scalar IDSforWSN.node[13].batteryStats 	total 	6767.7742080465
attr unit  mW-s
scalar IDSforWSN.node[13].batteryStats 	lifetime 	-1
attr unit  s
scalar IDSforWSN.node[13].batteryStats 	"Mean power consumption" 	56.398118400387
attr unit  mW
scalar IDSforWSN.node[14].mobility 	x 	66.4719085695
scalar IDSforWSN.node[14].mobility 	y 	0.9944607615
scalar IDSforWSN.node[14].nic.mac 	nbTxFrames 	27
scalar IDSforWSN.node[14].nic.mac 	nbRxFrames 	0
scalar IDSforWSN.node[14].nic.mac 	nbDroppedFrames 	0
scalar IDSforWSN.node[14].nic.mac 	nbMissedAcks 	0
scalar IDSforWSN.node[14].nic.mac 	nbRecvdAcks 	0
scalar IDSforWSN.node[14].nic.mac 	nbTxAcks 	0
scalar IDSforWSN.node[14].nic.mac 	nbDuplicates 	0
scalar IDSforWSN.node[14].nic.mac 	meanBackoff 	0.00099428571428571
scalar IDSforWSN.node[14].nic.mac 	nbBackoffs 	28
scalar IDSforWSN.node[14].nic.mac 	backoffDurations 	0.02784
scalar IDSforWSN.node[14].nic.ids 	neighbour36PacketsReceived 	72
scalar IDSforWSN.node[14].nic.ids 	neighbour36PacketsForwarded 	65
scalar IDSforWSN.node[14].nic.ids 	neighbour36isDropperLocal 	1
scalar IDSforWSN.node[14].nic.ids 	neighbour36isDropperGlobal 	0
scalar IDSforWSN.node[14].nic.ids 	neighbour36IntentionalPacketDropping 	0
scalar IDSforWSN.node[14].nic.ids 	"Number of neighbors - forwardersMap" 	1
scalar IDSforWSN.node[14].nic.ids 	"Number of neighbors - neighborsSet" 	7
scalar IDSforWSN.node[14].nic.ids 	data_packets_intercepted 	187
scalar IDSforWSN.node[14].nic.ids 	data_packets_me_to_somebody 	24
scalar IDSforWSN.node[14].nic.ids 	data_packets_somebody_to_me 	0
scalar IDSforWSN.node[14].nic.ids 	data_packets_somebody_to_somebody 	163
scalar IDSforWSN.node[14].nic.phy 	nbFramesWithInterference 	1
scalar IDSforWSN.node[14].nic.phy 	nbFramesWithoutInterference 	219
scalar IDSforWSN.node[14].nic.phy 	nbFramesWithInterferencePartial 	21
scalar IDSforWSN.node[14].nic.phy 	nbFramesWithoutInterferencePartial 	2844
scalar IDSforWSN.node[14].nic.phy 	nbFramesWithInterferenceDropped 	1
scalar IDSforWSN.node[14].nic.phy 	nbFramesWithoutInterferenceDropped 	191
scalar IDSforWSN.node[14].netwl 	nbPacketsForwarded 	0
scalar IDSforWSN.node[14].netwl 	nbPacketsReceived 	0
scalar IDSforWSN.node[14].netwl 	nbPacketsSent 	24
scalar IDSforWSN.node[14].netwl 	nbPacketsDropped 	0
scalar IDSforWSN.node[14].tranl 	nbAggrPktReceived 	0
scalar IDSforWSN.node[14].tranl 	"nbAggrPktSentDown " 	0
scalar IDSforWSN.node[14].appl 	"activity duration" 	-1
attr unit  s
scalar IDSforWSN.node[14].appl 	firstPacketGeneration 	-1
attr unit  s
scalar IDSforWSN.node[14].appl 	lastPacketReception 	-2
attr unit  s
scalar IDSforWSN.node[14].appl 	nbPacketsSent 	24
scalar IDSforWSN.node[14].appl 	nbPacketsReceived 	0
statistic IDSforWSN.node[14].appl 	latency
field count 0
field mean 0
field stddev -1.#IND
field sum 0
field sqrsum 0
field min 0
field max 0
scalar IDSforWSN.node[14].batteryStats 	nominal 	10800000
attr unit  mW-s
scalar IDSforWSN.node[14].batteryStats 	total 	6767.9294399992
attr unit  mW-s
scalar IDSforWSN.node[14].batteryStats 	lifetime 	-1
attr unit  s
scalar IDSforWSN.node[14].batteryStats 	"Mean power consumption" 	56.399411999993
attr unit  mW
scalar IDSforWSN.node[15].mobility 	x 	84.005744934
scalar IDSforWSN.node[15].mobility 	y 	41.9477882386
scalar IDSforWSN.node[15].nic.mac 	nbTxFrames 	105
scalar IDSforWSN.node[15].nic.mac 	nbRxFrames 	43
scalar IDSforWSN.node[15].nic.mac 	nbDroppedFrames 	0
scalar IDSforWSN.node[15].nic.mac 	nbMissedAcks 	0
scalar IDSforWSN.node[15].nic.mac 	nbRecvdAcks 	0
scalar IDSforWSN.node[15].nic.mac 	nbTxAcks 	0
scalar IDSforWSN.node[15].nic.mac 	nbDuplicates 	0
scalar IDSforWSN.node[15].nic.mac 	meanBackoff 	0.0010363302752294
scalar IDSforWSN.node[15].nic.mac 	nbBackoffs 	109
scalar IDSforWSN.node[15].nic.mac 	backoffDurations 	0.11296
scalar IDSforWSN.node[15].nic.ids 	neighbour6PacketsReceived 	1
scalar IDSforWSN.node[15].nic.ids 	neighbour6PacketsForwarded 	0
scalar IDSforWSN.node[15].nic.ids 	neighbour6isDropperLocal 	1
scalar IDSforWSN.node[15].nic.ids 	neighbour6isDropperGlobal 	0
scalar IDSforWSN.node[15].nic.ids 	neighbour6IntentionalPacketDropping 	0
scalar IDSforWSN.node[15].nic.ids 	neighbour28PacketsReceived 	19
scalar IDSforWSN.node[15].nic.ids 	neighbour28PacketsForwarded 	0
scalar IDSforWSN.node[15].nic.ids 	neighbour28isDropperLocal 	1
scalar IDSforWSN.node[15].nic.ids 	neighbour28isDropperGlobal 	1
scalar IDSforWSN.node[15].nic.ids 	neighbour28IntentionalPacketDropping 	0
scalar IDSforWSN.node[15].nic.ids 	neighbour41PacketsReceived 	67
scalar IDSforWSN.node[15].nic.ids 	neighbour41PacketsForwarded 	32
scalar IDSforWSN.node[15].nic.ids 	neighbour41isDropperLocal 	1
scalar IDSforWSN.node[15].nic.ids 	neighbour41isDropperGlobal 	1
scalar IDSforWSN.node[15].nic.ids 	neighbour41IntentionalPacketDropping 	0
scalar IDSforWSN.node[15].nic.ids 	neighbour104PacketsReceived 	17
scalar IDSforWSN.node[15].nic.ids 	neighbour104PacketsForwarded 	3
scalar IDSforWSN.node[15].nic.ids 	neighbour104isDropperLocal 	1
scalar IDSforWSN.node[15].nic.ids 	neighbour104isDropperGlobal 	0
scalar IDSforWSN.node[15].nic.ids 	neighbour104IntentionalPacketDropping 	0
scalar IDSforWSN.node[15].nic.ids 	neighbour158PacketsReceived 	2
scalar IDSforWSN.node[15].nic.ids 	neighbour158PacketsForwarded 	0
scalar IDSforWSN.node[15].nic.ids 	neighbour158isDropperLocal 	1
scalar IDSforWSN.node[15].nic.ids 	neighbour158isDropperGlobal 	0
scalar IDSforWSN.node[15].nic.ids 	neighbour158IntentionalPacketDropping 	0
scalar IDSforWSN.node[15].nic.ids 	neighbour194PacketsReceived 	46
scalar IDSforWSN.node[15].nic.ids 	neighbour194PacketsForwarded 	39
scalar IDSforWSN.node[15].nic.ids 	neighbour194isDropperLocal 	1
scalar IDSforWSN.node[15].nic.ids 	neighbour194isDropperGlobal 	0
scalar IDSforWSN.node[15].nic.ids 	neighbour194IntentionalPacketDropping 	0
scalar IDSforWSN.node[15].nic.ids 	neighbour237PacketsReceived 	20
scalar IDSforWSN.node[15].nic.ids 	neighbour237PacketsForwarded 	4
scalar IDSforWSN.node[15].nic.ids 	neighbour237isDropperLocal 	1
scalar IDSforWSN.node[15].nic.ids 	neighbour237isDropperGlobal 	1
scalar IDSforWSN.node[15].nic.ids 	neighbour237IntentionalPacketDropping 	0
scalar IDSforWSN.node[15].nic.ids 	"Number of neighbors - forwardersMap" 	7
scalar IDSforWSN.node[15].nic.ids 	"Number of neighbors - neighborsSet" 	13
scalar IDSforWSN.node[15].nic.ids 	data_packets_intercepted 	408
scalar IDSforWSN.node[15].nic.ids 	data_packets_me_to_somebody 	67
scalar IDSforWSN.node[15].nic.ids 	data_packets_somebody_to_me 	43
scalar IDSforWSN.node[15].nic.ids 	data_packets_somebody_to_somebody 	298
scalar IDSforWSN.node[15].nic.phy 	nbFramesWithInterference 	2
scalar IDSforWSN.node[15].nic.phy 	nbFramesWithoutInterference 	560
scalar IDSforWSN.node[15].nic.phy 	nbFramesWithInterferencePartial 	61
scalar IDSforWSN.node[15].nic.phy 	nbFramesWithoutInterferencePartial 	4968
scalar IDSforWSN.node[15].nic.phy 	nbFramesWithInterferenceDropped 	10
scalar IDSforWSN.node[15].nic.phy 	nbFramesWithoutInterferenceDropped 	690
scalar IDSforWSN.node[15].netwl 	nbPacketsForwarded 	43
scalar IDSforWSN.node[15].netwl 	nbPacketsReceived 	43
scalar IDSforWSN.node[15].netwl 	nbPacketsSent 	24
scalar IDSforWSN.node[15].netwl 	nbPacketsDropped 	0
scalar IDSforWSN.node[15].tranl 	nbAggrPktReceived 	0
scalar IDSforWSN.node[15].tranl 	"nbAggrPktSentDown " 	0
scalar IDSforWSN.node[15].appl 	"activity duration" 	-1
attr unit  s
scalar IDSforWSN.node[15].appl 	firstPacketGeneration 	-1
attr unit  s
scalar IDSforWSN.node[15].appl 	lastPacketReception 	-2
attr unit  s
scalar IDSforWSN.node[15].appl 	nbPacketsSent 	24
scalar IDSforWSN.node[15].appl 	nbPacketsReceived 	0
statistic IDSforWSN.node[15].appl 	latency
field count 0
field mean 0
field stddev -1.#IND
field sum 0
field sqrsum 0
field min 0
field max 0
scalar IDSforWSN.node[15].batteryStats 	nominal 	10800000
attr unit  mW-s
scalar IDSforWSN.node[15].batteryStats 	total 	6767.743296029
attr unit  mW-s
scalar IDSforWSN.node[15].batteryStats 	lifetime 	-1
attr unit  s
scalar IDSforWSN.node[15].batteryStats 	"Mean power consumption" 	56.397860800242
attr unit  mW
scalar IDSforWSN.node[16].mobility 	x 	6.4926023484
scalar IDSforWSN.node[16].mobility 	y 	92.2383651735
scalar IDSforWSN.node[16].nic.mac 	nbTxFrames 	128
scalar IDSforWSN.node[16].nic.mac 	nbRxFrames 	71
scalar IDSforWSN.node[16].nic.mac 	nbDroppedFrames 	0
scalar IDSforWSN.node[16].nic.mac 	nbMissedAcks 	0
scalar IDSforWSN.node[16].nic.mac 	nbRecvdAcks 	0
scalar IDSforWSN.node[16].nic.mac 	nbTxAcks 	0
scalar IDSforWSN.node[16].nic.mac 	nbDuplicates 	0
scalar IDSforWSN.node[16].nic.mac 	meanBackoff 	0.00103
scalar IDSforWSN.node[16].nic.mac 	nbBackoffs 	128
scalar IDSforWSN.node[16].nic.mac 	backoffDurations 	0.13184
scalar IDSforWSN.node[16].nic.ids 	neighbour2PacketsReceived 	23
scalar IDSforWSN.node[16].nic.ids 	neighbour2PacketsForwarded 	23
scalar IDSforWSN.node[16].nic.ids 	neighbour2isDropperLocal 	0
scalar IDSforWSN.node[16].nic.ids 	neighbour2isDropperGlobal 	0
scalar IDSforWSN.node[16].nic.ids 	neighbour2IntentionalPacketDropping 	0
scalar IDSforWSN.node[16].nic.ids 	neighbour71PacketsReceived 	238
scalar IDSforWSN.node[16].nic.ids 	neighbour71PacketsForwarded 	45
scalar IDSforWSN.node[16].nic.ids 	neighbour71isDropperLocal 	1
scalar IDSforWSN.node[16].nic.ids 	neighbour71isDropperGlobal 	1
scalar IDSforWSN.node[16].nic.ids 	neighbour71IntentionalPacketDropping 	0
scalar IDSforWSN.node[16].nic.ids 	neighbour221PacketsReceived 	20
scalar IDSforWSN.node[16].nic.ids 	neighbour221PacketsForwarded 	20
scalar IDSforWSN.node[16].nic.ids 	neighbour221isDropperLocal 	0
scalar IDSforWSN.node[16].nic.ids 	neighbour221isDropperGlobal 	0
scalar IDSforWSN.node[16].nic.ids 	neighbour221IntentionalPacketDropping 	0
scalar IDSforWSN.node[16].nic.ids 	"Number of neighbors - forwardersMap" 	3
scalar IDSforWSN.node[16].nic.ids 	"Number of neighbors - neighborsSet" 	11
scalar IDSforWSN.node[16].nic.ids 	data_packets_intercepted 	420
scalar IDSforWSN.node[16].nic.ids 	data_packets_me_to_somebody 	95
scalar IDSforWSN.node[16].nic.ids 	data_packets_somebody_to_me 	71
scalar IDSforWSN.node[16].nic.ids 	data_packets_somebody_to_somebody 	254
scalar IDSforWSN.node[16].nic.phy 	nbFramesWithInterference 	2
scalar IDSforWSN.node[16].nic.phy 	nbFramesWithoutInterference 	584
scalar IDSforWSN.node[16].nic.phy 	nbFramesWithInterferencePartial 	7
scalar IDSforWSN.node[16].nic.phy 	nbFramesWithoutInterferencePartial 	1138
scalar IDSforWSN.node[16].nic.phy 	nbFramesWithInterferenceDropped 	0
scalar IDSforWSN.node[16].nic.phy 	nbFramesWithoutInterferenceDropped 	181
scalar IDSforWSN.node[16].netwl 	nbPacketsForwarded 	71
scalar IDSforWSN.node[16].netwl 	nbPacketsReceived 	71
scalar IDSforWSN.node[16].netwl 	nbPacketsSent 	24
scalar IDSforWSN.node[16].netwl 	nbPacketsDropped 	0
scalar IDSforWSN.node[16].tranl 	nbAggrPktReceived 	0
scalar IDSforWSN.node[16].tranl 	"nbAggrPktSentDown " 	0
scalar IDSforWSN.node[16].appl 	"activity duration" 	-1
attr unit  s
scalar IDSforWSN.node[16].appl 	firstPacketGeneration 	-1
attr unit  s
scalar IDSforWSN.node[16].appl 	lastPacketReception 	-2
attr unit  s
scalar IDSforWSN.node[16].appl 	nbPacketsSent 	24
scalar IDSforWSN.node[16].appl 	nbPacketsReceived 	0
statistic IDSforWSN.node[16].appl 	latency
field count 0
field mean 0
field stddev -1.#IND
field sum 0
field sqrsum 0
field min 0
field max 0
scalar IDSforWSN.node[16].batteryStats 	nominal 	10800000
attr unit  mW-s
scalar IDSforWSN.node[16].batteryStats 	total 	6767.6781120263
attr unit  mW-s
scalar IDSforWSN.node[16].batteryStats 	lifetime 	-1
attr unit  s
scalar IDSforWSN.node[16].batteryStats 	"Mean power consumption" 	56.397317600219
attr unit  mW
scalar IDSforWSN.node[17].mobility 	x 	21.948671341
scalar IDSforWSN.node[17].mobility 	y 	6.8354058266
scalar IDSforWSN.node[17].nic.mac 	nbTxFrames 	82
scalar IDSforWSN.node[17].nic.mac 	nbRxFrames 	36
scalar IDSforWSN.node[17].nic.mac 	nbDroppedFrames 	0
scalar IDSforWSN.node[17].nic.mac 	nbMissedAcks 	0
scalar IDSforWSN.node[17].nic.mac 	nbRecvdAcks 	0
scalar IDSforWSN.node[17].nic.mac 	nbTxAcks 	0
scalar IDSforWSN.node[17].nic.mac 	nbDuplicates 	0
scalar IDSforWSN.node[17].nic.mac 	meanBackoff 	0.0010602409638554
scalar IDSforWSN.node[17].nic.mac 	nbBackoffs 	83
scalar IDSforWSN.node[17].nic.mac 	backoffDurations 	0.088
scalar IDSforWSN.node[17].nic.ids 	neighbour35PacketsReceived 	20
scalar IDSforWSN.node[17].nic.ids 	neighbour35PacketsForwarded 	12
scalar IDSforWSN.node[17].nic.ids 	neighbour35isDropperLocal 	1
scalar IDSforWSN.node[17].nic.ids 	neighbour35isDropperGlobal 	0
scalar IDSforWSN.node[17].nic.ids 	neighbour35IntentionalPacketDropping 	0
scalar IDSforWSN.node[17].nic.ids 	neighbour124PacketsReceived 	44
scalar IDSforWSN.node[17].nic.ids 	neighbour124PacketsForwarded 	3
scalar IDSforWSN.node[17].nic.ids 	neighbour124isDropperLocal 	1
scalar IDSforWSN.node[17].nic.ids 	neighbour124isDropperGlobal 	1
scalar IDSforWSN.node[17].nic.ids 	neighbour124IntentionalPacketDropping 	0
scalar IDSforWSN.node[17].nic.ids 	neighbour212PacketsReceived 	83
scalar IDSforWSN.node[17].nic.ids 	neighbour212PacketsForwarded 	36
scalar IDSforWSN.node[17].nic.ids 	neighbour212isDropperLocal 	1
scalar IDSforWSN.node[17].nic.ids 	neighbour212isDropperGlobal 	1
scalar IDSforWSN.node[17].nic.ids 	neighbour212IntentionalPacketDropping 	0
scalar IDSforWSN.node[17].nic.ids 	"Number of neighbors - forwardersMap" 	3
scalar IDSforWSN.node[17].nic.ids 	"Number of neighbors - neighborsSet" 	9
scalar IDSforWSN.node[17].nic.ids 	data_packets_intercepted 	249
scalar IDSforWSN.node[17].nic.ids 	data_packets_me_to_somebody 	60
scalar IDSforWSN.node[17].nic.ids 	data_packets_somebody_to_me 	36
scalar IDSforWSN.node[17].nic.ids 	data_packets_somebody_to_somebody 	153
scalar IDSforWSN.node[17].nic.phy 	nbFramesWithInterference 	1
scalar IDSforWSN.node[17].nic.phy 	nbFramesWithoutInterference 	281
scalar IDSforWSN.node[17].nic.phy 	nbFramesWithInterferencePartial 	14
scalar IDSforWSN.node[17].nic.phy 	nbFramesWithoutInterferencePartial 	2059
scalar IDSforWSN.node[17].nic.phy 	nbFramesWithInterferenceDropped 	1
scalar IDSforWSN.node[17].nic.phy 	nbFramesWithoutInterferenceDropped 	319
scalar IDSforWSN.node[17].netwl 	nbPacketsForwarded 	36
scalar IDSforWSN.node[17].netwl 	nbPacketsReceived 	36
scalar IDSforWSN.node[17].netwl 	nbPacketsSent 	24
scalar IDSforWSN.node[17].netwl 	nbPacketsDropped 	0
scalar IDSforWSN.node[17].tranl 	nbAggrPktReceived 	0
scalar IDSforWSN.node[17].tranl 	"nbAggrPktSentDown " 	0
scalar IDSforWSN.node[17].appl 	"activity duration" 	-1
attr unit  s
scalar IDSforWSN.node[17].appl 	firstPacketGeneration 	-1
attr unit  s
scalar IDSforWSN.node[17].appl 	lastPacketReception 	-2
attr unit  s
scalar IDSforWSN.node[17].appl 	nbPacketsSent 	24
scalar IDSforWSN.node[17].appl 	nbPacketsReceived 	0
statistic IDSforWSN.node[17].appl 	latency
field count 0
field mean 0
field stddev -1.#IND
field sum 0
field sqrsum 0
field min 0
field max 0
scalar IDSforWSN.node[17].batteryStats 	nominal 	10800000
attr unit  mW-s
scalar IDSforWSN.node[17].batteryStats 	total 	6767.7943680119
attr unit  mW-s
scalar IDSforWSN.node[17].batteryStats 	lifetime 	-1
attr unit  s
scalar IDSforWSN.node[17].batteryStats 	"Mean power consumption" 	56.398286400099
attr unit  mW
scalar IDSforWSN.node[18].mobility 	x 	25.0256271363
scalar IDSforWSN.node[18].mobility 	y 	68.597053528
scalar IDSforWSN.node[18].nic.mac 	nbTxFrames 	103
scalar IDSforWSN.node[18].nic.mac 	nbRxFrames 	54
scalar IDSforWSN.node[18].nic.mac 	nbDroppedFrames 	0
scalar IDSforWSN.node[18].nic.mac 	nbMissedAcks 	0
scalar IDSforWSN.node[18].nic.mac 	nbRecvdAcks 	0
scalar IDSforWSN.node[18].nic.mac 	nbTxAcks 	0
scalar IDSforWSN.node[18].nic.mac 	nbDuplicates 	0
scalar IDSforWSN.node[18].nic.mac 	meanBackoff 	0.0011478899082569
scalar IDSforWSN.node[18].nic.mac 	nbBackoffs 	109
scalar IDSforWSN.node[18].nic.mac 	backoffDurations 	0.12512
scalar IDSforWSN.node[18].nic.ids 	neighbour20PacketsReceived 	196
scalar IDSforWSN.node[18].nic.ids 	neighbour20PacketsForwarded 	105
scalar IDSforWSN.node[18].nic.ids 	neighbour20isDropperLocal 	1
scalar IDSforWSN.node[18].nic.ids 	neighbour20isDropperGlobal 	1
scalar IDSforWSN.node[18].nic.ids 	neighbour20IntentionalPacketDropping 	0
scalar IDSforWSN.node[18].nic.ids 	neighbour32PacketsReceived 	3
scalar IDSforWSN.node[18].nic.ids 	neighbour32PacketsForwarded 	0
scalar IDSforWSN.node[18].nic.ids 	neighbour32isDropperLocal 	1
scalar IDSforWSN.node[18].nic.ids 	neighbour32isDropperGlobal 	0
scalar IDSforWSN.node[18].nic.ids 	neighbour32IntentionalPacketDropping 	0
scalar IDSforWSN.node[18].nic.ids 	neighbour88PacketsReceived 	2
scalar IDSforWSN.node[18].nic.ids 	neighbour88PacketsForwarded 	0
scalar IDSforWSN.node[18].nic.ids 	neighbour88isDropperLocal 	1
scalar IDSforWSN.node[18].nic.ids 	neighbour88isDropperGlobal 	0
scalar IDSforWSN.node[18].nic.ids 	neighbour88IntentionalPacketDropping 	0
scalar IDSforWSN.node[18].nic.ids 	neighbour148PacketsReceived 	3
scalar IDSforWSN.node[18].nic.ids 	neighbour148PacketsForwarded 	1
scalar IDSforWSN.node[18].nic.ids 	neighbour148isDropperLocal 	1
scalar IDSforWSN.node[18].nic.ids 	neighbour148isDropperGlobal 	0
scalar IDSforWSN.node[18].nic.ids 	neighbour148IntentionalPacketDropping 	0
scalar IDSforWSN.node[18].nic.ids 	neighbour190PacketsReceived 	52
scalar IDSforWSN.node[18].nic.ids 	neighbour190PacketsForwarded 	42
scalar IDSforWSN.node[18].nic.ids 	neighbour190isDropperLocal 	1
scalar IDSforWSN.node[18].nic.ids 	neighbour190isDropperGlobal 	0
scalar IDSforWSN.node[18].nic.ids 	neighbour190IntentionalPacketDropping 	0
scalar IDSforWSN.node[18].nic.ids 	neighbour205PacketsReceived 	2
scalar IDSforWSN.node[18].nic.ids 	neighbour205PacketsForwarded 	2
scalar IDSforWSN.node[18].nic.ids 	neighbour205isDropperLocal 	0
scalar IDSforWSN.node[18].nic.ids 	neighbour205isDropperGlobal 	0
scalar IDSforWSN.node[18].nic.ids 	neighbour205IntentionalPacketDropping 	0
scalar IDSforWSN.node[18].nic.ids 	"Number of neighbors - forwardersMap" 	6
scalar IDSforWSN.node[18].nic.ids 	"Number of neighbors - neighborsSet" 	14
scalar IDSforWSN.node[18].nic.ids 	data_packets_intercepted 	515
scalar IDSforWSN.node[18].nic.ids 	data_packets_me_to_somebody 	78
scalar IDSforWSN.node[18].nic.ids 	data_packets_somebody_to_me 	54
scalar IDSforWSN.node[18].nic.ids 	data_packets_somebody_to_somebody 	383
scalar IDSforWSN.node[18].nic.phy 	nbFramesWithInterference 	9
scalar IDSforWSN.node[18].nic.phy 	nbFramesWithoutInterference 	681
scalar IDSforWSN.node[18].nic.phy 	nbFramesWithInterferencePartial 	76
scalar IDSforWSN.node[18].nic.phy 	nbFramesWithoutInterferencePartial 	5183
scalar IDSforWSN.node[18].nic.phy 	nbFramesWithInterferenceDropped 	7
scalar IDSforWSN.node[18].nic.phy 	nbFramesWithoutInterferenceDropped 	587
scalar IDSforWSN.node[18].netwl 	nbPacketsForwarded 	54
scalar IDSforWSN.node[18].netwl 	nbPacketsReceived 	54
scalar IDSforWSN.node[18].netwl 	nbPacketsSent 	24
scalar IDSforWSN.node[18].netwl 	nbPacketsDropped 	0
scalar IDSforWSN.node[18].tranl 	nbAggrPktReceived 	0
scalar IDSforWSN.node[18].tranl 	"nbAggrPktSentDown " 	0
scalar IDSforWSN.node[18].appl 	"activity duration" 	-1
attr unit  s
scalar IDSforWSN.node[18].appl 	firstPacketGeneration 	-1
attr unit  s
scalar IDSforWSN.node[18].appl 	lastPacketReception 	-2
attr unit  s
scalar IDSforWSN.node[18].appl 	nbPacketsSent 	24
scalar IDSforWSN.node[18].appl 	nbPacketsReceived 	0
statistic IDSforWSN.node[18].appl 	latency
field count 0
field mean 0
field stddev -1.#IND
field sum 0
field sqrsum 0
field min 0
field max 0
scalar IDSforWSN.node[18].batteryStats 	nominal 	10800000
attr unit  mW-s
scalar IDSforWSN.node[18].batteryStats 	total 	6767.7399360128
attr unit  mW-s
scalar IDSforWSN.node[18].batteryStats 	lifetime 	-1
attr unit  s
scalar IDSforWSN.node[18].batteryStats 	"Mean power consumption" 	56.397832800106
attr unit  mW
scalar IDSforWSN.node[19].mobility 	x 	57.123023987
scalar IDSforWSN.node[19].mobility 	y 	50.102607727
scalar IDSforWSN.node[19].nic.mac 	nbTxFrames 	115
scalar IDSforWSN.node[19].nic.mac 	nbRxFrames 	88
scalar IDSforWSN.node[19].nic.mac 	nbDroppedFrames 	0
scalar IDSforWSN.node[19].nic.mac 	nbMissedAcks 	0
scalar IDSforWSN.node[19].nic.mac 	nbRecvdAcks 	0
scalar IDSforWSN.node[19].nic.mac 	nbTxAcks 	0
scalar IDSforWSN.node[19].nic.mac 	nbDuplicates 	0
scalar IDSforWSN.node[19].nic.mac 	meanBackoff 	0.00128
scalar IDSforWSN.node[19].nic.mac 	nbBackoffs 	120
scalar IDSforWSN.node[19].nic.mac 	backoffDurations 	0.1536
scalar IDSforWSN.node[19].nic.ids 	neighbour0PacketsReceived 	1
scalar IDSforWSN.node[19].nic.ids 	neighbour0PacketsForwarded 	0
scalar IDSforWSN.node[19].nic.ids 	neighbour0isDropperLocal 	1
scalar IDSforWSN.node[19].nic.ids 	neighbour0isDropperGlobal 	0
scalar IDSforWSN.node[19].nic.ids 	neighbour0IntentionalPacketDropping 	0
scalar IDSforWSN.node[19].nic.ids 	neighbour116PacketsReceived 	87
scalar IDSforWSN.node[19].nic.ids 	neighbour116PacketsForwarded 	80
scalar IDSforWSN.node[19].nic.ids 	neighbour116isDropperLocal 	0
scalar IDSforWSN.node[19].nic.ids 	neighbour116isDropperGlobal 	0
scalar IDSforWSN.node[19].nic.ids 	neighbour116IntentionalPacketDropping 	0
scalar IDSforWSN.node[19].nic.ids 	"Number of neighbors - forwardersMap" 	2
scalar IDSforWSN.node[19].nic.ids 	"Number of neighbors - neighborsSet" 	11
scalar IDSforWSN.node[19].nic.ids 	data_packets_intercepted 	859
scalar IDSforWSN.node[19].nic.ids 	data_packets_me_to_somebody 	112
scalar IDSforWSN.node[19].nic.ids 	data_packets_somebody_to_me 	88
scalar IDSforWSN.node[19].nic.ids 	data_packets_somebody_to_somebody 	659
scalar IDSforWSN.node[19].nic.phy 	nbFramesWithInterference 	2
scalar IDSforWSN.node[19].nic.phy 	nbFramesWithoutInterference 	944
scalar IDSforWSN.node[19].nic.phy 	nbFramesWithInterferencePartial 	119
scalar IDSforWSN.node[19].nic.phy 	nbFramesWithoutInterferencePartial 	6313
scalar IDSforWSN.node[19].nic.phy 	nbFramesWithInterferenceDropped 	14
scalar IDSforWSN.node[19].nic.phy 	nbFramesWithoutInterferenceDropped 	1219
scalar IDSforWSN.node[19].netwl 	nbPacketsForwarded 	88
scalar IDSforWSN.node[19].netwl 	nbPacketsReceived 	88
scalar IDSforWSN.node[19].netwl 	nbPacketsSent 	24
scalar IDSforWSN.node[19].netwl 	nbPacketsDropped 	0
scalar IDSforWSN.node[19].tranl 	nbAggrPktReceived 	0
scalar IDSforWSN.node[19].tranl 	"nbAggrPktSentDown " 	0
scalar IDSforWSN.node[19].appl 	"activity duration" 	-1
attr unit  s
scalar IDSforWSN.node[19].appl 	firstPacketGeneration 	-1
attr unit  s
scalar IDSforWSN.node[19].appl 	lastPacketReception 	-2
attr unit  s
scalar IDSforWSN.node[19].appl 	nbPacketsSent 	24
scalar IDSforWSN.node[19].appl 	nbPacketsReceived 	0
statistic IDSforWSN.node[19].appl 	latency
field count 0
field mean 0
field stddev -1.#IND
field sum 0
field sqrsum 0
field min 0
field max 0
scalar IDSforWSN.node[19].batteryStats 	nominal 	10800000
attr unit  mW-s
scalar IDSforWSN.node[19].batteryStats 	total 	6767.692895975
attr unit  mW-s
scalar IDSforWSN.node[19].batteryStats 	lifetime 	-1
attr unit  s
scalar IDSforWSN.node[19].batteryStats 	"Mean power consumption" 	56.397440799791
attr unit  mW
scalar IDSforWSN.node[20].mobility 	x 	31.2443332672
scalar IDSforWSN.node[20].mobility 	y 	64.187675476
scalar IDSforWSN.node[20].nic.mac 	nbTxFrames 	155
scalar IDSforWSN.node[20].nic.mac 	nbRxFrames 	111
scalar IDSforWSN.node[20].nic.mac 	nbDroppedFrames 	0
scalar IDSforWSN.node[20].nic.mac 	nbMissedAcks 	0
scalar IDSforWSN.node[20].nic.mac 	nbRecvdAcks 	0
scalar IDSforWSN.node[20].nic.mac 	nbTxAcks 	0
scalar IDSforWSN.node[20].nic.mac 	nbDuplicates 	0
scalar IDSforWSN.node[20].nic.mac 	meanBackoff 	0.0012939130434783
scalar IDSforWSN.node[20].nic.mac 	nbBackoffs 	161
scalar IDSforWSN.node[20].nic.mac 	backoffDurations 	0.20832
scalar IDSforWSN.node[20].nic.ids 	neighbour32PacketsReceived 	2
scalar IDSforWSN.node[20].nic.ids 	neighbour32PacketsForwarded 	1
scalar IDSforWSN.node[20].nic.ids 	neighbour32isDropperLocal 	1
scalar IDSforWSN.node[20].nic.ids 	neighbour32isDropperGlobal 	0
scalar IDSforWSN.node[20].nic.ids 	neighbour32IntentionalPacketDropping 	0
scalar IDSforWSN.node[20].nic.ids 	neighbour54PacketsReceived 	62
scalar IDSforWSN.node[20].nic.ids 	neighbour54PacketsForwarded 	0
scalar IDSforWSN.node[20].nic.ids 	neighbour54isDropperLocal 	1
scalar IDSforWSN.node[20].nic.ids 	neighbour54isDropperGlobal 	1
[...]
attr unit  mW-s
scalar IDSforWSN.node[245].batteryStats 	total 	6767.7399361208
attr unit  mW-s
scalar IDSforWSN.node[245].batteryStats 	lifetime 	-1
attr unit  s
scalar IDSforWSN.node[245].batteryStats 	"Mean power consumption" 	56.397832801007
attr unit  mW
scalar IDSforWSN.node[246].mobility 	x 	46.6906394959
scalar IDSforWSN.node[246].mobility 	y 	37.0041847229
scalar IDSforWSN.node[246].nic.mac 	nbTxFrames 	141
scalar IDSforWSN.node[246].nic.mac 	nbRxFrames 	97
scalar IDSforWSN.node[246].nic.mac 	nbDroppedFrames 	0
scalar IDSforWSN.node[246].nic.mac 	nbMissedAcks 	0
scalar IDSforWSN.node[246].nic.mac 	nbRecvdAcks 	0
scalar IDSforWSN.node[246].nic.mac 	nbTxAcks 	0
scalar IDSforWSN.node[246].nic.mac 	nbDuplicates 	0
scalar IDSforWSN.node[246].nic.mac 	meanBackoff 	0.0011353424657534
scalar IDSforWSN.node[246].nic.mac 	nbBackoffs 	146
scalar IDSforWSN.node[246].nic.mac 	backoffDurations 	0.16576
scalar IDSforWSN.node[246].nic.ids 	neighbour206PacketsReceived 	342
scalar IDSforWSN.node[246].nic.ids 	neighbour206PacketsForwarded 	260
scalar IDSforWSN.node[246].nic.ids 	neighbour206isDropperLocal 	1
scalar IDSforWSN.node[246].nic.ids 	neighbour206isDropperGlobal 	1
scalar IDSforWSN.node[246].nic.ids 	neighbour206IntentionalPacketDropping 	0
scalar IDSforWSN.node[246].nic.ids 	neighbour239PacketsReceived 	91
scalar IDSforWSN.node[246].nic.ids 	neighbour239PacketsForwarded 	89
scalar IDSforWSN.node[246].nic.ids 	neighbour239isDropperLocal 	0
scalar IDSforWSN.node[246].nic.ids 	neighbour239isDropperGlobal 	0
scalar IDSforWSN.node[246].nic.ids 	neighbour239IntentionalPacketDropping 	0
scalar IDSforWSN.node[246].nic.ids 	"Number of neighbors - forwardersMap" 	2
scalar IDSforWSN.node[246].nic.ids 	"Number of neighbors - neighborsSet" 	10
scalar IDSforWSN.node[246].nic.ids 	data_packets_intercepted 	854
scalar IDSforWSN.node[246].nic.ids 	data_packets_me_to_somebody 	121
scalar IDSforWSN.node[246].nic.ids 	data_packets_somebody_to_me 	97
scalar IDSforWSN.node[246].nic.ids 	data_packets_somebody_to_somebody 	636
scalar IDSforWSN.node[246].nic.phy 	nbFramesWithInterference 	7
scalar IDSforWSN.node[246].nic.phy 	nbFramesWithoutInterference 	870
scalar IDSforWSN.node[246].nic.phy 	nbFramesWithInterferencePartial 	126
scalar IDSforWSN.node[246].nic.phy 	nbFramesWithoutInterferencePartial 	7087
scalar IDSforWSN.node[246].nic.phy 	nbFramesWithInterferenceDropped 	19
scalar IDSforWSN.node[246].nic.phy 	nbFramesWithoutInterferenceDropped 	841
scalar IDSforWSN.node[246].netwl 	nbPacketsForwarded 	97
scalar IDSforWSN.node[246].netwl 	nbPacketsReceived 	97
scalar IDSforWSN.node[246].netwl 	nbPacketsSent 	24
scalar IDSforWSN.node[246].netwl 	nbPacketsDropped 	0
scalar IDSforWSN.node[246].tranl 	nbAggrPktReceived 	0
scalar IDSforWSN.node[246].tranl 	"nbAggrPktSentDown " 	0
scalar IDSforWSN.node[246].appl 	"activity duration" 	-1
attr unit  s
scalar IDSforWSN.node[246].appl 	firstPacketGeneration 	-1
attr unit  s
scalar IDSforWSN.node[246].appl 	lastPacketReception 	-2
attr unit  s
scalar IDSforWSN.node[246].appl 	nbPacketsSent 	24
scalar IDSforWSN.node[246].appl 	nbPacketsReceived 	0
statistic IDSforWSN.node[246].appl 	latency
field count 0
field mean 0
field stddev -1.#IND
field sum 0
field sqrsum 0
field min 0
field max 0
scalar IDSforWSN.node[246].batteryStats 	nominal 	10800000
attr unit  mW-s
scalar IDSforWSN.node[246].batteryStats 	total 	6767.6344319973
attr unit  mW-s
scalar IDSforWSN.node[246].batteryStats 	lifetime 	-1
attr unit  s
scalar IDSforWSN.node[246].batteryStats 	"Mean power consumption" 	56.396953599978
attr unit  mW
scalar IDSforWSN.node[247].mobility 	x 	13.679599762
scalar IDSforWSN.node[247].mobility 	y 	94.361656189
scalar IDSforWSN.node[247].nic.mac 	nbTxFrames 	65
scalar IDSforWSN.node[247].nic.mac 	nbRxFrames 	0
scalar IDSforWSN.node[247].nic.mac 	nbDroppedFrames 	0
scalar IDSforWSN.node[247].nic.mac 	nbMissedAcks 	0
scalar IDSforWSN.node[247].nic.mac 	nbRecvdAcks 	0
scalar IDSforWSN.node[247].nic.mac 	nbTxAcks 	0
scalar IDSforWSN.node[247].nic.mac 	nbDuplicates 	0
scalar IDSforWSN.node[247].nic.mac 	meanBackoff 	0.0012169696969697
scalar IDSforWSN.node[247].nic.mac 	nbBackoffs 	66
scalar IDSforWSN.node[247].nic.mac 	backoffDurations 	0.08032
scalar IDSforWSN.node[247].nic.ids 	neighbour2PacketsReceived 	11
scalar IDSforWSN.node[247].nic.ids 	neighbour2PacketsForwarded 	8
scalar IDSforWSN.node[247].nic.ids 	neighbour2isDropperLocal 	1
scalar IDSforWSN.node[247].nic.ids 	neighbour2isDropperGlobal 	0
scalar IDSforWSN.node[247].nic.ids 	neighbour2IntentionalPacketDropping 	0
scalar IDSforWSN.node[247].nic.ids 	neighbour16PacketsReceived 	22
scalar IDSforWSN.node[247].nic.ids 	neighbour16PacketsForwarded 	21
scalar IDSforWSN.node[247].nic.ids 	neighbour16isDropperLocal 	1
scalar IDSforWSN.node[247].nic.ids 	neighbour16isDropperGlobal 	0
scalar IDSforWSN.node[247].nic.ids 	neighbour16IntentionalPacketDropping 	0
scalar IDSforWSN.node[247].nic.ids 	neighbour71PacketsReceived 	225
scalar IDSforWSN.node[247].nic.ids 	neighbour71PacketsForwarded 	118
scalar IDSforWSN.node[247].nic.ids 	neighbour71isDropperLocal 	1
scalar IDSforWSN.node[247].nic.ids 	neighbour71isDropperGlobal 	1
scalar IDSforWSN.node[247].nic.ids 	neighbour71IntentionalPacketDropping 	0
scalar IDSforWSN.node[247].nic.ids 	neighbour169PacketsReceived 	35
scalar IDSforWSN.node[247].nic.ids 	neighbour169PacketsForwarded 	12
scalar IDSforWSN.node[247].nic.ids 	neighbour169isDropperLocal 	1
scalar IDSforWSN.node[247].nic.ids 	neighbour169isDropperGlobal 	0
scalar IDSforWSN.node[247].nic.ids 	neighbour169IntentionalPacketDropping 	0
scalar IDSforWSN.node[247].nic.ids 	neighbour221PacketsReceived 	23
scalar IDSforWSN.node[247].nic.ids 	neighbour221PacketsForwarded 	23
scalar IDSforWSN.node[247].nic.ids 	neighbour221isDropperLocal 	0
scalar IDSforWSN.node[247].nic.ids 	neighbour221isDropperGlobal 	0
scalar IDSforWSN.node[247].nic.ids 	neighbour221IntentionalPacketDropping 	0
scalar IDSforWSN.node[247].nic.ids 	"Number of neighbors - forwardersMap" 	5
scalar IDSforWSN.node[247].nic.ids 	"Number of neighbors - neighborsSet" 	13
scalar IDSforWSN.node[247].nic.ids 	data_packets_intercepted 	486
scalar IDSforWSN.node[247].nic.ids 	data_packets_me_to_somebody 	24
scalar IDSforWSN.node[247].nic.ids 	data_packets_somebody_to_me 	0
scalar IDSforWSN.node[247].nic.ids 	data_packets_somebody_to_somebody 	462
scalar IDSforWSN.node[247].nic.phy 	nbFramesWithInterference 	2
scalar IDSforWSN.node[247].nic.phy 	nbFramesWithoutInterference 	704
scalar IDSforWSN.node[247].nic.phy 	nbFramesWithInterferencePartial 	9
scalar IDSforWSN.node[247].nic.phy 	nbFramesWithoutInterferencePartial 	1291
scalar IDSforWSN.node[247].nic.phy 	nbFramesWithInterferenceDropped 	1
scalar IDSforWSN.node[247].nic.phy 	nbFramesWithoutInterferenceDropped 	199
scalar IDSforWSN.node[247].netwl 	nbPacketsForwarded 	0
scalar IDSforWSN.node[247].netwl 	nbPacketsReceived 	0
scalar IDSforWSN.node[247].netwl 	nbPacketsSent 	24
scalar IDSforWSN.node[247].netwl 	nbPacketsDropped 	0
scalar IDSforWSN.node[247].tranl 	nbAggrPktReceived 	0
scalar IDSforWSN.node[247].tranl 	"nbAggrPktSentDown " 	0
scalar IDSforWSN.node[247].appl 	"activity duration" 	-1
attr unit  s
scalar IDSforWSN.node[247].appl 	firstPacketGeneration 	-1
attr unit  s
scalar IDSforWSN.node[247].appl 	lastPacketReception 	-2
attr unit  s
scalar IDSforWSN.node[247].appl 	nbPacketsSent 	24
scalar IDSforWSN.node[247].appl 	nbPacketsReceived 	0
statistic IDSforWSN.node[247].appl 	latency
field count 0
field mean 0
field stddev -1.#IND
field sum 0
field sqrsum 0
field min 0
field max 0
scalar IDSforWSN.node[247].batteryStats 	nominal 	10800000
attr unit  mW-s
scalar IDSforWSN.node[247].batteryStats 	total 	6767.8528320435
attr unit  mW-s
scalar IDSforWSN.node[247].batteryStats 	lifetime 	-1
attr unit  s
scalar IDSforWSN.node[247].batteryStats 	"Mean power consumption" 	56.398773600363
attr unit  mW
scalar IDSforWSN.node[248].mobility 	x 	33.7095832825
scalar IDSforWSN.node[248].mobility 	y 	30.6812019348
scalar IDSforWSN.node[248].nic.mac 	nbTxFrames 	35
scalar IDSforWSN.node[248].nic.mac 	nbRxFrames 	0
scalar IDSforWSN.node[248].nic.mac 	nbDroppedFrames 	0
scalar IDSforWSN.node[248].nic.mac 	nbMissedAcks 	0
scalar IDSforWSN.node[248].nic.mac 	nbRecvdAcks 	0
scalar IDSforWSN.node[248].nic.mac 	nbTxAcks 	0
scalar IDSforWSN.node[248].nic.mac 	nbDuplicates 	0
scalar IDSforWSN.node[248].nic.mac 	meanBackoff 	0.0011611428571429
scalar IDSforWSN.node[248].nic.mac 	nbBackoffs 	35
scalar IDSforWSN.node[248].nic.mac 	backoffDurations 	0.04064
scalar IDSforWSN.node[248].nic.ids 	neighbour49PacketsReceived 	95
scalar IDSforWSN.node[248].nic.ids 	neighbour49PacketsForwarded 	68
scalar IDSforWSN.node[248].nic.ids 	neighbour49isDropperLocal 	1
scalar IDSforWSN.node[248].nic.ids 	neighbour49isDropperGlobal 	1
scalar IDSforWSN.node[248].nic.ids 	neighbour49IntentionalPacketDropping 	0
scalar IDSforWSN.node[248].nic.ids 	neighbour80PacketsReceived 	3
scalar IDSforWSN.node[248].nic.ids 	neighbour80PacketsForwarded 	0
scalar IDSforWSN.node[248].nic.ids 	neighbour80isDropperLocal 	1
scalar IDSforWSN.node[248].nic.ids 	neighbour80isDropperGlobal 	0
scalar IDSforWSN.node[248].nic.ids 	neighbour80IntentionalPacketDropping 	0
scalar IDSforWSN.node[248].nic.ids 	neighbour122PacketsReceived 	200
scalar IDSforWSN.node[248].nic.ids 	neighbour122PacketsForwarded 	1
scalar IDSforWSN.node[248].nic.ids 	neighbour122isDropperLocal 	1
scalar IDSforWSN.node[248].nic.ids 	neighbour122isDropperGlobal 	1
scalar IDSforWSN.node[248].nic.ids 	neighbour122IntentionalPacketDropping 	0
scalar IDSforWSN.node[248].nic.ids 	neighbour163PacketsReceived 	62
scalar IDSforWSN.node[248].nic.ids 	neighbour163PacketsForwarded 	58
scalar IDSforWSN.node[248].nic.ids 	neighbour163isDropperLocal 	1
scalar IDSforWSN.node[248].nic.ids 	neighbour163isDropperGlobal 	0
scalar IDSforWSN.node[248].nic.ids 	neighbour163IntentionalPacketDropping 	0
scalar IDSforWSN.node[248].nic.ids 	"Number of neighbors - forwardersMap" 	4
scalar IDSforWSN.node[248].nic.ids 	"Number of neighbors - neighborsSet" 	10
scalar IDSforWSN.node[248].nic.ids 	data_packets_intercepted 	514
scalar IDSforWSN.node[248].nic.ids 	data_packets_me_to_somebody 	24
scalar IDSforWSN.node[248].nic.ids 	data_packets_somebody_to_me 	0
scalar IDSforWSN.node[248].nic.ids 	data_packets_somebody_to_somebody 	490
scalar IDSforWSN.node[248].nic.phy 	nbFramesWithInterference 	8
scalar IDSforWSN.node[248].nic.phy 	nbFramesWithoutInterference 	610
scalar IDSforWSN.node[248].nic.phy 	nbFramesWithInterferencePartial 	90
scalar IDSforWSN.node[248].nic.phy 	nbFramesWithoutInterferencePartial 	6651
scalar IDSforWSN.node[248].nic.phy 	nbFramesWithInterferenceDropped 	15
scalar IDSforWSN.node[248].nic.phy 	nbFramesWithoutInterferenceDropped 	621
scalar IDSforWSN.node[248].netwl 	nbPacketsForwarded 	0
scalar IDSforWSN.node[248].netwl 	nbPacketsReceived 	0
scalar IDSforWSN.node[248].netwl 	nbPacketsSent 	24
scalar IDSforWSN.node[248].netwl 	nbPacketsDropped 	0
scalar IDSforWSN.node[248].tranl 	nbAggrPktReceived 	0
scalar IDSforWSN.node[248].tranl 	"nbAggrPktSentDown " 	0
scalar IDSforWSN.node[248].appl 	"activity duration" 	-1
attr unit  s
scalar IDSforWSN.node[248].appl 	firstPacketGeneration 	-1
attr unit  s
scalar IDSforWSN.node[248].appl 	lastPacketReception 	-2
attr unit  s
scalar IDSforWSN.node[248].appl 	nbPacketsSent 	24
scalar IDSforWSN.node[248].appl 	nbPacketsReceived 	0
statistic IDSforWSN.node[248].appl 	latency
field count 0
field mean 0
field stddev -1.#IND
field sum 0
field sqrsum 0
field min 0
field max 0
scalar IDSforWSN.node[248].batteryStats 	nominal 	10800000
attr unit  mW-s
scalar IDSforWSN.node[248].batteryStats 	total 	6767.913312003
attr unit  mW-s
scalar IDSforWSN.node[248].batteryStats 	lifetime 	-1
attr unit  s
scalar IDSforWSN.node[248].batteryStats 	"Mean power consumption" 	56.399277600025
attr unit  mW
scalar IDSforWSN.node[249].mobility 	x 	54.894050598
scalar IDSforWSN.node[249].mobility 	y 	84.68057251
scalar IDSforWSN.node[249].nic.mac 	nbTxFrames 	49
scalar IDSforWSN.node[249].nic.mac 	nbRxFrames 	0
scalar IDSforWSN.node[249].nic.mac 	nbDroppedFrames 	0
scalar IDSforWSN.node[249].nic.mac 	nbMissedAcks 	0
scalar IDSforWSN.node[249].nic.mac 	nbRecvdAcks 	0
scalar IDSforWSN.node[249].nic.mac 	nbTxAcks 	0
scalar IDSforWSN.node[249].nic.mac 	nbDuplicates 	0
scalar IDSforWSN.node[249].nic.mac 	meanBackoff 	0.0011968
scalar IDSforWSN.node[249].nic.mac 	nbBackoffs 	50
scalar IDSforWSN.node[249].nic.mac 	backoffDurations 	0.05984
scalar IDSforWSN.node[249].nic.ids 	neighbour31PacketsReceived 	19
scalar IDSforWSN.node[249].nic.ids 	neighbour31PacketsForwarded 	19
scalar IDSforWSN.node[249].nic.ids 	neighbour31isDropperLocal 	0
scalar IDSforWSN.node[249].nic.ids 	neighbour31isDropperGlobal 	0
scalar IDSforWSN.node[249].nic.ids 	neighbour31IntentionalPacketDropping 	0
scalar IDSforWSN.node[249].nic.ids 	neighbour62PacketsReceived 	95
scalar IDSforWSN.node[249].nic.ids 	neighbour62PacketsForwarded 	61
scalar IDSforWSN.node[249].nic.ids 	neighbour62isDropperLocal 	1
scalar IDSforWSN.node[249].nic.ids 	neighbour62isDropperGlobal 	1
scalar IDSforWSN.node[249].nic.ids 	neighbour62IntentionalPacketDropping 	0
scalar IDSforWSN.node[249].nic.ids 	neighbour85PacketsReceived 	24
scalar IDSforWSN.node[249].nic.ids 	neighbour85PacketsForwarded 	14
scalar IDSforWSN.node[249].nic.ids 	neighbour85isDropperLocal 	1
scalar IDSforWSN.node[249].nic.ids 	neighbour85isDropperGlobal 	0
scalar IDSforWSN.node[249].nic.ids 	neighbour85IntentionalPacketDropping 	0
scalar IDSforWSN.node[249].nic.ids 	neighbour181PacketsReceived 	144
scalar IDSforWSN.node[249].nic.ids 	neighbour181PacketsForwarded 	125
scalar IDSforWSN.node[249].nic.ids 	neighbour181isDropperLocal 	1
scalar IDSforWSN.node[249].nic.ids 	neighbour181isDropperGlobal 	1
scalar IDSforWSN.node[249].nic.ids 	neighbour181IntentionalPacketDropping 	0
scalar IDSforWSN.node[249].nic.ids 	neighbour199PacketsReceived 	2
scalar IDSforWSN.node[249].nic.ids 	neighbour199PacketsForwarded 	2
scalar IDSforWSN.node[249].nic.ids 	neighbour199isDropperLocal 	0
scalar IDSforWSN.node[249].nic.ids 	neighbour199isDropperGlobal 	0
scalar IDSforWSN.node[249].nic.ids 	neighbour199IntentionalPacketDropping 	0
scalar IDSforWSN.node[249].nic.ids 	"Number of neighbors - forwardersMap" 	5
scalar IDSforWSN.node[249].nic.ids 	"Number of neighbors - neighborsSet" 	12
scalar IDSforWSN.node[249].nic.ids 	data_packets_intercepted 	587
scalar IDSforWSN.node[249].nic.ids 	data_packets_me_to_somebody 	24
scalar IDSforWSN.node[249].nic.ids 	data_packets_somebody_to_me 	0
scalar IDSforWSN.node[249].nic.ids 	data_packets_somebody_to_somebody 	563
scalar IDSforWSN.node[249].nic.phy 	nbFramesWithInterference 	5
scalar IDSforWSN.node[249].nic.phy 	nbFramesWithoutInterference 	775
scalar IDSforWSN.node[249].nic.phy 	nbFramesWithInterferencePartial 	27
scalar IDSforWSN.node[249].nic.phy 	nbFramesWithoutInterferencePartial 	2530
scalar IDSforWSN.node[249].nic.phy 	nbFramesWithInterferenceDropped 	3
scalar IDSforWSN.node[249].nic.phy 	nbFramesWithoutInterferenceDropped 	505
scalar IDSforWSN.node[249].netwl 	nbPacketsForwarded 	0
scalar IDSforWSN.node[249].netwl 	nbPacketsReceived 	0
scalar IDSforWSN.node[249].netwl 	nbPacketsSent 	24
scalar IDSforWSN.node[249].netwl 	nbPacketsDropped 	0
scalar IDSforWSN.node[249].tranl 	nbAggrPktReceived 	0
scalar IDSforWSN.node[249].tranl 	"nbAggrPktSentDown " 	0
scalar IDSforWSN.node[249].appl 	"activity duration" 	-1
attr unit  s
scalar IDSforWSN.node[249].appl 	firstPacketGeneration 	-1
attr unit  s
scalar IDSforWSN.node[249].appl 	lastPacketReception 	-2
attr unit  s
scalar IDSforWSN.node[249].appl 	nbPacketsSent 	24
scalar IDSforWSN.node[249].appl 	nbPacketsReceived 	0
statistic IDSforWSN.node[249].appl 	latency
field count 0
field mean 0
field stddev -1.#IND
field sum 0
field sqrsum 0
field min 0
field max 0
scalar IDSforWSN.node[249].batteryStats 	nominal 	10800000
attr unit  mW-s
scalar IDSforWSN.node[249].batteryStats 	total 	6767.8850880247
attr unit  mW-s
scalar IDSforWSN.node[249].batteryStats 	lifetime 	-1
attr unit  s
scalar IDSforWSN.node[249].batteryStats 	"Mean power consumption" 	56.399042400206
attr unit  mW
scalar IDSforWSN.node[250].mobility 	x 	50
scalar IDSforWSN.node[250].mobility 	y 	50
scalar IDSforWSN.node[250].nic.mac 	nbTxFrames 	4
scalar IDSforWSN.node[250].nic.mac 	nbRxFrames 	822
scalar IDSforWSN.node[250].nic.mac 	nbDroppedFrames 	0
scalar IDSforWSN.node[250].nic.mac 	nbMissedAcks 	0
scalar IDSforWSN.node[250].nic.mac 	nbRecvdAcks 	0
scalar IDSforWSN.node[250].nic.mac 	nbTxAcks 	0
scalar IDSforWSN.node[250].nic.mac 	nbDuplicates 	0
scalar IDSforWSN.node[250].nic.mac 	meanBackoff 	0.00144
scalar IDSforWSN.node[250].nic.mac 	nbBackoffs 	4
scalar IDSforWSN.node[250].nic.mac 	backoffDurations 	0.00576
scalar IDSforWSN.node[250].nic.ids 	neighbour8PacketsReceived 	8
scalar IDSforWSN.node[250].nic.ids 	neighbour8PacketsForwarded 	3
scalar IDSforWSN.node[250].nic.ids 	neighbour8isDropperLocal 	1
scalar IDSforWSN.node[250].nic.ids 	neighbour8isDropperGlobal 	1
scalar IDSforWSN.node[250].nic.ids 	neighbour8IntentionalPacketDropping 	0
scalar IDSforWSN.node[250].nic.ids 	neighbour19PacketsReceived 	1
scalar IDSforWSN.node[250].nic.ids 	neighbour19PacketsForwarded 	0
scalar IDSforWSN.node[250].nic.ids 	neighbour19isDropperLocal 	1
scalar IDSforWSN.node[250].nic.ids 	neighbour19isDropperGlobal 	0
scalar IDSforWSN.node[250].nic.ids 	neighbour19IntentionalPacketDropping 	0
scalar IDSforWSN.node[250].nic.ids 	neighbour206PacketsReceived 	1
scalar IDSforWSN.node[250].nic.ids 	neighbour206PacketsForwarded 	1
scalar IDSforWSN.node[250].nic.ids 	neighbour206isDropperLocal 	0
scalar IDSforWSN.node[250].nic.ids 	neighbour206isDropperGlobal 	0
scalar IDSforWSN.node[250].nic.ids 	neighbour206IntentionalPacketDropping 	0
scalar IDSforWSN.node[250].nic.ids 	"Number of neighbors - forwardersMap" 	3
scalar IDSforWSN.node[250].nic.ids 	"Number of neighbors - neighborsSet" 	11
scalar IDSforWSN.node[250].nic.ids 	data_packets_intercepted 	832
scalar IDSforWSN.node[250].nic.ids 	data_packets_me_to_somebody 	0
scalar IDSforWSN.node[250].nic.ids 	data_packets_somebody_to_me 	822
scalar IDSforWSN.node[250].nic.ids 	data_packets_somebody_to_somebody 	10
scalar IDSforWSN.node[250].nic.phy 	nbFramesWithInterference 	5
scalar IDSforWSN.node[250].nic.phy 	nbFramesWithoutInterference 	867
scalar IDSforWSN.node[250].nic.phy 	nbFramesWithInterferencePartial 	139
scalar IDSforWSN.node[250].nic.phy 	nbFramesWithoutInterferencePartial 	7147
scalar IDSforWSN.node[250].nic.phy 	nbFramesWithInterferenceDropped 	18
scalar IDSforWSN.node[250].nic.phy 	nbFramesWithoutInterferenceDropped 	1099
scalar IDSforWSN.node[250].netwl 	nbPacketsForwarded 	0
scalar IDSforWSN.node[250].netwl 	nbPacketsReceived 	822
scalar IDSforWSN.node[250].netwl 	nbPacketsSent 	0
scalar IDSforWSN.node[250].netwl 	nbPacketsDropped 	0
scalar IDSforWSN.node[250].tranl 	nbAggrPktReceived 	0
scalar IDSforWSN.node[250].tranl 	"nbAggrPktSentDown " 	0
scalar IDSforWSN.node[250].appl 	"activity duration" 	119.06398522708
attr unit  s
scalar IDSforWSN.node[250].appl 	firstPacketGeneration 	0.74134320137
attr unit  s
scalar IDSforWSN.node[250].appl 	lastPacketReception 	119.80532842845
attr unit  s
scalar IDSforWSN.node[250].appl 	nbPacketsSent 	0
scalar IDSforWSN.node[250].appl 	nbPacketsReceived 	822
statistic IDSforWSN.node[250].appl 	latency
field count 822
field mean 0.013161732470373
field stddev 0.0069533735041555
field sum 10.818944090647
field sqrsum 0.18209090766851
field min 0.002751999998
field max 0.036991999984
scalar IDSforWSN.node[250].batteryStats 	nominal 	10800000
attr unit  mW-s
scalar IDSforWSN.node[250].batteryStats 	total 	6767.9919360038
attr unit  mW-s
scalar IDSforWSN.node[250].batteryStats 	lifetime 	-1
attr unit  s
scalar IDSforWSN.node[250].batteryStats 	"Mean power consumption" 	56.399932800032
attr unit  mW
