version 2
run Test2-0-20150211-00:03:33-3148
attr configname Test2
attr datetime 20150211-00:03:33
attr experiment Test2
attr inifile omnetpp.ini
attr iterationvars ""
attr iterationvars2 $repetition=0
attr measurement ""
attr network idsforwsn.networks.IDSforWSN
attr processid 3148
attr repetition 0
attr replication #0
attr resultdir results
attr runnumber 0
attr seedset 0

statistic IDSforWSN.simHelper 	numNeighbors
field count 251
field mean 40.625498007968
field stddev 11.574937894045
field sum 10197
field sqrsum 447753
field min 18
field max 61
attr type  int
bin	-INF	0
bin	-4	0
bin	-3	0
bin	-2	0
bin	-1	0
bin	0	0
bin	1	0
bin	2	0
bin	3	0
bin	4	0
bin	5	0
bin	6	0
bin	7	0
bin	8	0
bin	9	0
bin	10	0
bin	11	0
bin	12	0
bin	13	0
bin	14	0
bin	15	0
bin	16	0
bin	17	0
bin	18	2
bin	19	1
bin	20	6
bin	21	4
bin	22	5
bin	23	2
bin	24	4
bin	25	4
bin	26	7
bin	27	7
bin	28	6
bin	29	7
bin	30	9
bin	31	4
bin	32	7
bin	33	4
bin	34	8
bin	35	5
bin	36	8
bin	37	4
bin	38	8
bin	39	3
bin	40	6
bin	41	4
bin	42	7
bin	43	4
bin	44	6
bin	45	4
bin	46	8
bin	47	5
bin	48	5
bin	49	10
bin	50	15
bin	51	11
bin	52	10
bin	53	4
bin	54	7
bin	55	10
bin	56	3
bin	57	3
bin	58	4
bin	59	2
bin	60	5
bin	61	3
bin	62	0
bin	63	0
bin	64	0
bin	65	0
bin	66	0
bin	67	0
bin	68	0
bin	69	0
bin	70	0
bin	71	0
bin	72	0
bin	73	0
bin	74	0
bin	75	0
bin	76	0
bin	77	0
bin	78	0
bin	79	0
bin	80	0
bin	81	0
bin	82	0
bin	83	0
scalar IDSforWSN.simHelper 	"neighbors in average" 	40.625498007968
scalar IDSforWSN.node[0].nic.ids 	neigh5PackRec 	138
scalar IDSforWSN.node[0].nic.ids 	neigh5PackFwd 	87
scalar IDSforWSN.node[0].nic.ids 	neigh5DropLoc 	1
scalar IDSforWSN.node[0].nic.ids 	neigh5DropGlob 	1
scalar IDSforWSN.node[0].nic.ids 	neighbour5IntentionalPacketDropping 	0
scalar IDSforWSN.node[0].nic.ids 	neigh6PackRec 	2
scalar IDSforWSN.node[0].nic.ids 	neigh6PackFwd 	0
scalar IDSforWSN.node[0].nic.ids 	neigh6DropLoc 	1
scalar IDSforWSN.node[0].nic.ids 	neigh6DropGlob 	0
scalar IDSforWSN.node[0].nic.ids 	neighbour6IntentionalPacketDropping 	0
scalar IDSforWSN.node[0].nic.ids 	neigh8PackRec 	65
scalar IDSforWSN.node[0].nic.ids 	neigh8PackFwd 	1
scalar IDSforWSN.node[0].nic.ids 	neigh8DropLoc 	1
scalar IDSforWSN.node[0].nic.ids 	neigh8DropGlob 	1
scalar IDSforWSN.node[0].nic.ids 	neighbour8IntentionalPacketDropping 	0
scalar IDSforWSN.node[0].nic.ids 	neigh9PackRec 	1
scalar IDSforWSN.node[0].nic.ids 	neigh9PackFwd 	0
scalar IDSforWSN.node[0].nic.ids 	neigh9DropLoc 	1
scalar IDSforWSN.node[0].nic.ids 	neigh9DropGlob 	0
scalar IDSforWSN.node[0].nic.ids 	neighbour9IntentionalPacketDropping 	0
scalar IDSforWSN.node[0].nic.ids 	neigh15PackRec 	5
scalar IDSforWSN.node[0].nic.ids 	neigh15PackFwd 	0
scalar IDSforWSN.node[0].nic.ids 	neigh15DropLoc 	1
scalar IDSforWSN.node[0].nic.ids 	neigh15DropGlob 	0
scalar IDSforWSN.node[0].nic.ids 	neighbour15IntentionalPacketDropping 	0
scalar IDSforWSN.node[0].nic.ids 	neigh19PackRec 	1840
scalar IDSforWSN.node[0].nic.ids 	neigh19PackFwd 	1516
scalar IDSforWSN.node[0].nic.ids 	neigh19DropLoc 	1
scalar IDSforWSN.node[0].nic.ids 	neigh19DropGlob 	1
scalar IDSforWSN.node[0].nic.ids 	neighbour19IntentionalPacketDropping 	0
scalar IDSforWSN.node[0].nic.ids 	neigh27PackRec 	694
scalar IDSforWSN.node[0].nic.ids 	neigh27PackFwd 	532
scalar IDSforWSN.node[0].nic.ids 	neigh27DropLoc 	1
scalar IDSforWSN.node[0].nic.ids 	neigh27DropGlob 	1
scalar IDSforWSN.node[0].nic.ids 	neighbour27IntentionalPacketDropping 	0
scalar IDSforWSN.node[0].nic.ids 	neigh28PackRec 	167
scalar IDSforWSN.node[0].nic.ids 	neigh28PackFwd 	162
scalar IDSforWSN.node[0].nic.ids 	neigh28DropLoc 	1
scalar IDSforWSN.node[0].nic.ids 	neigh28DropGlob 	0
scalar IDSforWSN.node[0].nic.ids 	neighbour28IntentionalPacketDropping 	0
scalar IDSforWSN.node[0].nic.ids 	neigh41PackRec 	60
scalar IDSforWSN.node[0].nic.ids 	neigh41PackFwd 	34
scalar IDSforWSN.node[0].nic.ids 	neigh41DropLoc 	1
scalar IDSforWSN.node[0].nic.ids 	neigh41DropGlob 	0
scalar IDSforWSN.node[0].nic.ids 	neighbour41IntentionalPacketDropping 	0.5
scalar IDSforWSN.node[0].nic.ids 	neigh59PackRec 	21
scalar IDSforWSN.node[0].nic.ids 	neigh59PackFwd 	8
scalar IDSforWSN.node[0].nic.ids 	neigh59DropLoc 	1
scalar IDSforWSN.node[0].nic.ids 	neigh59DropGlob 	0
scalar IDSforWSN.node[0].nic.ids 	neighbour59IntentionalPacketDropping 	0
scalar IDSforWSN.node[0].nic.ids 	neigh70PackRec 	18
scalar IDSforWSN.node[0].nic.ids 	neigh70PackFwd 	0
scalar IDSforWSN.node[0].nic.ids 	neigh70DropLoc 	1
scalar IDSforWSN.node[0].nic.ids 	neigh70DropGlob 	1
scalar IDSforWSN.node[0].nic.ids 	neighbour70IntentionalPacketDropping 	0
scalar IDSforWSN.node[0].nic.ids 	neigh93PackRec 	410
scalar IDSforWSN.node[0].nic.ids 	neigh93PackFwd 	407
scalar IDSforWSN.node[0].nic.ids 	neigh93DropLoc 	1
scalar IDSforWSN.node[0].nic.ids 	neigh93DropGlob 	0
scalar IDSforWSN.node[0].nic.ids 	neighbour93IntentionalPacketDropping 	0
scalar IDSforWSN.node[0].nic.ids 	neigh104PackRec 	1
scalar IDSforWSN.node[0].nic.ids 	neigh104PackFwd 	0
scalar IDSforWSN.node[0].nic.ids 	neigh104DropLoc 	1
scalar IDSforWSN.node[0].nic.ids 	neigh104DropGlob 	0
scalar IDSforWSN.node[0].nic.ids 	neighbour104IntentionalPacketDropping 	0
scalar IDSforWSN.node[0].nic.ids 	neigh113PackRec 	14
scalar IDSforWSN.node[0].nic.ids 	neigh113PackFwd 	2
scalar IDSforWSN.node[0].nic.ids 	neigh113DropLoc 	1
scalar IDSforWSN.node[0].nic.ids 	neigh113DropGlob 	1
scalar IDSforWSN.node[0].nic.ids 	neighbour113IntentionalPacketDropping 	0
scalar IDSforWSN.node[0].nic.ids 	neigh116PackRec 	1708
scalar IDSforWSN.node[0].nic.ids 	neigh116PackFwd 	1412
scalar IDSforWSN.node[0].nic.ids 	neigh116DropLoc 	1
scalar IDSforWSN.node[0].nic.ids 	neigh116DropGlob 	1
scalar IDSforWSN.node[0].nic.ids 	neighbour116IntentionalPacketDropping 	0
scalar IDSforWSN.node[0].nic.ids 	neigh158PackRec 	17
scalar IDSforWSN.node[0].nic.ids 	neigh158PackFwd 	12
scalar IDSforWSN.node[0].nic.ids 	neigh158DropLoc 	1
scalar IDSforWSN.node[0].nic.ids 	neigh158DropGlob 	0
scalar IDSforWSN.node[0].nic.ids 	neighbour158IntentionalPacketDropping 	0
scalar IDSforWSN.node[0].nic.ids 	neigh172PackRec 	1
scalar IDSforWSN.node[0].nic.ids 	neigh172PackFwd 	0
scalar IDSforWSN.node[0].nic.ids 	neigh172DropLoc 	1
scalar IDSforWSN.node[0].nic.ids 	neigh172DropGlob 	0
scalar IDSforWSN.node[0].nic.ids 	neighbour172IntentionalPacketDropping 	0
scalar IDSforWSN.node[0].nic.ids 	neigh194PackRec 	6
scalar IDSforWSN.node[0].nic.ids 	neigh194PackFwd 	3
scalar IDSforWSN.node[0].nic.ids 	neigh194DropLoc 	1
scalar IDSforWSN.node[0].nic.ids 	neigh194DropGlob 	0
scalar IDSforWSN.node[0].nic.ids 	neighbour194IntentionalPacketDropping 	0
scalar IDSforWSN.node[0].nic.ids 	neigh197PackRec 	1
scalar IDSforWSN.node[0].nic.ids 	neigh197PackFwd 	0
scalar IDSforWSN.node[0].nic.ids 	neigh197DropLoc 	1
scalar IDSforWSN.node[0].nic.ids 	neigh197DropGlob 	0
scalar IDSforWSN.node[0].nic.ids 	neighbour197IntentionalPacketDropping 	0
scalar IDSforWSN.node[0].nic.ids 	neigh200PackRec 	1
scalar IDSforWSN.node[0].nic.ids 	neigh200PackFwd 	0
scalar IDSforWSN.node[0].nic.ids 	neigh200DropLoc 	1
scalar IDSforWSN.node[0].nic.ids 	neigh200DropGlob 	0
scalar IDSforWSN.node[0].nic.ids 	neighbour200IntentionalPacketDropping 	0
scalar IDSforWSN.node[0].nic.ids 	neigh206PackRec 	29
scalar IDSforWSN.node[0].nic.ids 	neigh206PackFwd 	4
scalar IDSforWSN.node[0].nic.ids 	neigh206DropLoc 	1
scalar IDSforWSN.node[0].nic.ids 	neigh206DropGlob 	1
scalar IDSforWSN.node[0].nic.ids 	neighbour206IntentionalPacketDropping 	0.5
scalar IDSforWSN.node[0].nic.ids 	neigh236PackRec 	56
scalar IDSforWSN.node[0].nic.ids 	neigh236PackFwd 	20
scalar IDSforWSN.node[0].nic.ids 	neigh236DropLoc 	1
scalar IDSforWSN.node[0].nic.ids 	neigh236DropGlob 	1
scalar IDSforWSN.node[0].nic.ids 	neighbour236IntentionalPacketDropping 	0
scalar IDSforWSN.node[0].nic.ids 	neigh237PackRec 	82
scalar IDSforWSN.node[0].nic.ids 	neigh237PackFwd 	82
scalar IDSforWSN.node[0].nic.ids 	neigh237DropLoc 	0
scalar IDSforWSN.node[0].nic.ids 	neigh237DropGlob 	0
scalar IDSforWSN.node[0].nic.ids 	neighbour237IntentionalPacketDropping 	0
scalar IDSforWSN.node[0].nic.ids 	neigh239PackRec 	1
scalar IDSforWSN.node[0].nic.ids 	neigh239PackFwd 	0
scalar IDSforWSN.node[0].nic.ids 	neigh239DropLoc 	1
scalar IDSforWSN.node[0].nic.ids 	neigh239DropGlob 	0
scalar IDSforWSN.node[0].nic.ids 	neighbour239IntentionalPacketDropping 	0
scalar IDSforWSN.node[0].nic.ids 	neigh241PackRec 	395
scalar IDSforWSN.node[0].nic.ids 	neigh241PackFwd 	316
scalar IDSforWSN.node[0].nic.ids 	neigh241DropLoc 	1
scalar IDSforWSN.node[0].nic.ids 	neigh241DropGlob 	1
scalar IDSforWSN.node[0].nic.ids 	neighbour241IntentionalPacketDropping 	0
scalar IDSforWSN.node[0].nic.ids 	Neigbors_forwardersMap 	25
scalar IDSforWSN.node[0].nic.ids 	Neighbors_neighborsSet 	50
scalar IDSforWSN.node[0].nic.ids 	data_packets_intercepted 	10497
scalar IDSforWSN.node[0].nic.ids 	data_packets_me_to_somebody 	857
scalar IDSforWSN.node[0].nic.ids 	data_packets_somebody_to_me 	797
scalar IDSforWSN.node[0].nic.ids 	data_packets_somebody_to_somebody 	8843
scalar IDSforWSN.node[1].nic.ids 	neigh8PackRec 	1359
scalar IDSforWSN.node[1].nic.ids 	neigh8PackFwd 	466
scalar IDSforWSN.node[1].nic.ids 	neigh8DropLoc 	1
scalar IDSforWSN.node[1].nic.ids 	neigh8DropGlob 	1
scalar IDSforWSN.node[1].nic.ids 	neighbour8IntentionalPacketDropping 	0
scalar IDSforWSN.node[1].nic.ids 	neigh20PackRec 	25
scalar IDSforWSN.node[1].nic.ids 	neigh20PackFwd 	3
scalar IDSforWSN.node[1].nic.ids 	neigh20DropLoc 	1
scalar IDSforWSN.node[1].nic.ids 	neigh20DropGlob 	1
scalar IDSforWSN.node[1].nic.ids 	neighbour20IntentionalPacketDropping 	0.5
scalar IDSforWSN.node[1].nic.ids 	neigh32PackRec 	26
scalar IDSforWSN.node[1].nic.ids 	neigh32PackFwd 	22
scalar IDSforWSN.node[1].nic.ids 	neigh32DropLoc 	1
scalar IDSforWSN.node[1].nic.ids 	neigh32DropGlob 	0
scalar IDSforWSN.node[1].nic.ids 	neighbour32IntentionalPacketDropping 	0
scalar IDSforWSN.node[1].nic.ids 	neigh49PackRec 	106
scalar IDSforWSN.node[1].nic.ids 	neigh49PackFwd 	68
scalar IDSforWSN.node[1].nic.ids 	neigh49DropLoc 	1
scalar IDSforWSN.node[1].nic.ids 	neigh49DropGlob 	0
scalar IDSforWSN.node[1].nic.ids 	neighbour49IntentionalPacketDropping 	0
scalar IDSforWSN.node[1].nic.ids 	neigh54PackRec 	1650
scalar IDSforWSN.node[1].nic.ids 	neigh54PackFwd 	1273
scalar IDSforWSN.node[1].nic.ids 	neigh54DropLoc 	1
scalar IDSforWSN.node[1].nic.ids 	neigh54DropGlob 	1
scalar IDSforWSN.node[1].nic.ids 	neighbour54IntentionalPacketDropping 	0
scalar IDSforWSN.node[1].nic.ids 	neigh76PackRec 	168
scalar IDSforWSN.node[1].nic.ids 	neigh76PackFwd 	165
scalar IDSforWSN.node[1].nic.ids 	neigh76DropLoc 	1
scalar IDSforWSN.node[1].nic.ids 	neigh76DropGlob 	0
scalar IDSforWSN.node[1].nic.ids 	neighbour76IntentionalPacketDropping 	0
scalar IDSforWSN.node[1].nic.ids 	neigh80PackRec 	56
scalar IDSforWSN.node[1].nic.ids 	neigh80PackFwd 	55
scalar IDSforWSN.node[1].nic.ids 	neigh80DropLoc 	1
scalar IDSforWSN.node[1].nic.ids 	neigh80DropGlob 	0
scalar IDSforWSN.node[1].nic.ids 	neighbour80IntentionalPacketDropping 	0
scalar IDSforWSN.node[1].nic.ids 	neigh82PackRec 	259
scalar IDSforWSN.node[1].nic.ids 	neigh82PackFwd 	239
scalar IDSforWSN.node[1].nic.ids 	neigh82DropLoc 	1
scalar IDSforWSN.node[1].nic.ids 	neigh82DropGlob 	0
scalar IDSforWSN.node[1].nic.ids 	neighbour82IntentionalPacketDropping 	0
scalar IDSforWSN.node[1].nic.ids 	neigh87PackRec 	270
scalar IDSforWSN.node[1].nic.ids 	neigh87PackFwd 	251
scalar IDSforWSN.node[1].nic.ids 	neigh87DropLoc 	1
scalar IDSforWSN.node[1].nic.ids 	neigh87DropGlob 	1
scalar IDSforWSN.node[1].nic.ids 	neighbour87IntentionalPacketDropping 	0
scalar IDSforWSN.node[1].nic.ids 	neigh88PackRec 	7
scalar IDSforWSN.node[1].nic.ids 	neigh88PackFwd 	1
scalar IDSforWSN.node[1].nic.ids 	neigh88DropLoc 	1
scalar IDSforWSN.node[1].nic.ids 	neigh88DropGlob 	0
scalar IDSforWSN.node[1].nic.ids 	neighbour88IntentionalPacketDropping 	0
scalar IDSforWSN.node[1].nic.ids 	neigh90PackRec 	1034
scalar IDSforWSN.node[1].nic.ids 	neigh90PackFwd 	991
scalar IDSforWSN.node[1].nic.ids 	neigh90DropLoc 	1
scalar IDSforWSN.node[1].nic.ids 	neigh90DropGlob 	0
scalar IDSforWSN.node[1].nic.ids 	neighbour90IntentionalPacketDropping 	0
scalar IDSforWSN.node[1].nic.ids 	neigh105PackRec 	97
scalar IDSforWSN.node[1].nic.ids 	neigh105PackFwd 	93
scalar IDSforWSN.node[1].nic.ids 	neigh105DropLoc 	1
scalar IDSforWSN.node[1].nic.ids 	neigh105DropGlob 	0
scalar IDSforWSN.node[1].nic.ids 	neighbour105IntentionalPacketDropping 	0
scalar IDSforWSN.node[1].nic.ids 	neigh106PackRec 	19
scalar IDSforWSN.node[1].nic.ids 	neigh106PackFwd 	13
scalar IDSforWSN.node[1].nic.ids 	neigh106DropLoc 	1
scalar IDSforWSN.node[1].nic.ids 	neigh106DropGlob 	0
scalar IDSforWSN.node[1].nic.ids 	neighbour106IntentionalPacketDropping 	0
scalar IDSforWSN.node[1].nic.ids 	neigh108PackRec 	1301
scalar IDSforWSN.node[1].nic.ids 	neigh108PackFwd 	1297
scalar IDSforWSN.node[1].nic.ids 	neigh108DropLoc 	1
scalar IDSforWSN.node[1].nic.ids 	neigh108DropGlob 	0
scalar IDSforWSN.node[1].nic.ids 	neighbour108IntentionalPacketDropping 	0
scalar IDSforWSN.node[1].nic.ids 	neigh113PackRec 	8
scalar IDSforWSN.node[1].nic.ids 	neigh113PackFwd 	1
scalar IDSforWSN.node[1].nic.ids 	neigh113DropLoc 	1
scalar IDSforWSN.node[1].nic.ids 	neigh113DropGlob 	0
scalar IDSforWSN.node[1].nic.ids 	neighbour113IntentionalPacketDropping 	0
scalar IDSforWSN.node[1].nic.ids 	neigh117PackRec 	4
scalar IDSforWSN.node[1].nic.ids 	neigh117PackFwd 	2
scalar IDSforWSN.node[1].nic.ids 	neigh117DropLoc 	1
scalar IDSforWSN.node[1].nic.ids 	neigh117DropGlob 	0
scalar IDSforWSN.node[1].nic.ids 	neighbour117IntentionalPacketDropping 	0
scalar IDSforWSN.node[1].nic.ids 	neigh122PackRec 	93
scalar IDSforWSN.node[1].nic.ids 	neigh122PackFwd 	31
scalar IDSforWSN.node[1].nic.ids 	neigh122DropLoc 	1
scalar IDSforWSN.node[1].nic.ids 	neigh122DropGlob 	1
scalar IDSforWSN.node[1].nic.ids 	neighbour122IntentionalPacketDropping 	0
scalar IDSforWSN.node[1].nic.ids 	neigh163PackRec 	10
scalar IDSforWSN.node[1].nic.ids 	neigh163PackFwd 	1
scalar IDSforWSN.node[1].nic.ids 	neigh163DropLoc 	1
scalar IDSforWSN.node[1].nic.ids 	neigh163DropGlob 	0
scalar IDSforWSN.node[1].nic.ids 	neighbour163IntentionalPacketDropping 	0
scalar IDSforWSN.node[1].nic.ids 	neigh176PackRec 	10
scalar IDSforWSN.node[1].nic.ids 	neigh176PackFwd 	2
scalar IDSforWSN.node[1].nic.ids 	neigh176DropLoc 	1
scalar IDSforWSN.node[1].nic.ids 	neigh176DropGlob 	1
scalar IDSforWSN.node[1].nic.ids 	neighbour176IntentionalPacketDropping 	0.5
scalar IDSforWSN.node[1].nic.ids 	neigh185PackRec 	247
scalar IDSforWSN.node[1].nic.ids 	neigh185PackFwd 	228
scalar IDSforWSN.node[1].nic.ids 	neigh185DropLoc 	1
scalar IDSforWSN.node[1].nic.ids 	neigh185DropGlob 	0
scalar IDSforWSN.node[1].nic.ids 	neighbour185IntentionalPacketDropping 	0
scalar IDSforWSN.node[1].nic.ids 	neigh186PackRec 	1
scalar IDSforWSN.node[1].nic.ids 	neigh186PackFwd 	0
scalar IDSforWSN.node[1].nic.ids 	neigh186DropLoc 	1
scalar IDSforWSN.node[1].nic.ids 	neigh186DropGlob 	0
scalar IDSforWSN.node[1].nic.ids 	neighbour186IntentionalPacketDropping 	0
scalar IDSforWSN.node[1].nic.ids 	neigh190PackRec 	13
scalar IDSforWSN.node[1].nic.ids 	neigh190PackFwd 	3
scalar IDSforWSN.node[1].nic.ids 	neigh190DropLoc 	1
scalar IDSforWSN.node[1].nic.ids 	neigh190DropGlob 	0
scalar IDSforWSN.node[1].nic.ids 	neighbour190IntentionalPacketDropping 	0
scalar IDSforWSN.node[1].nic.ids 	neigh206PackRec 	589
scalar IDSforWSN.node[1].nic.ids 	neigh206PackFwd 	58
scalar IDSforWSN.node[1].nic.ids 	neigh206DropLoc 	1
scalar IDSforWSN.node[1].nic.ids 	neigh206DropGlob 	1
scalar IDSforWSN.node[1].nic.ids 	neighbour206IntentionalPacketDropping 	0.5
scalar IDSforWSN.node[1].nic.ids 	neigh239PackRec 	29
scalar IDSforWSN.node[1].nic.ids 	neigh239PackFwd 	2
scalar IDSforWSN.node[1].nic.ids 	neigh239DropLoc 	1
scalar IDSforWSN.node[1].nic.ids 	neigh239DropGlob 	0
scalar IDSforWSN.node[1].nic.ids 	neighbour239IntentionalPacketDropping 	0
scalar IDSforWSN.node[1].nic.ids 	neigh246PackRec 	187
scalar IDSforWSN.node[1].nic.ids 	neigh246PackFwd 	72
scalar IDSforWSN.node[1].nic.ids 	neigh246DropLoc 	1
scalar IDSforWSN.node[1].nic.ids 	neigh246DropGlob 	0
scalar IDSforWSN.node[1].nic.ids 	neighbour246IntentionalPacketDropping 	0
scalar IDSforWSN.node[1].nic.ids 	Neigbors_forwardersMap 	25
scalar IDSforWSN.node[1].nic.ids 	Neighbors_neighborsSet 	57
scalar IDSforWSN.node[1].nic.ids 	data_packets_intercepted 	10158
scalar IDSforWSN.node[1].nic.ids 	data_packets_me_to_somebody 	60
scalar IDSforWSN.node[1].nic.ids 	data_packets_somebody_to_me 	0
scalar IDSforWSN.node[1].nic.ids 	data_packets_somebody_to_somebody 	10098
scalar IDSforWSN.node[2].nic.ids 	neigh16PackRec 	180
scalar IDSforWSN.node[2].nic.ids 	neigh16PackFwd 	180
scalar IDSforWSN.node[2].nic.ids 	neigh16DropLoc 	0
scalar IDSforWSN.node[2].nic.ids 	neigh16DropGlob 	0
scalar IDSforWSN.node[2].nic.ids 	neighbour16IntentionalPacketDropping 	0
scalar IDSforWSN.node[2].nic.ids 	neigh71PackRec 	599
scalar IDSforWSN.node[2].nic.ids 	neigh71PackFwd 	553
scalar IDSforWSN.node[2].nic.ids 	neigh71DropLoc 	1
scalar IDSforWSN.node[2].nic.ids 	neigh71DropGlob 	1
scalar IDSforWSN.node[2].nic.ids 	neighbour71IntentionalPacketDropping 	0
scalar IDSforWSN.node[2].nic.ids 	neigh83PackRec 	60
scalar IDSforWSN.node[2].nic.ids 	neigh83PackFwd 	49
scalar IDSforWSN.node[2].nic.ids 	neigh83DropLoc 	1
scalar IDSforWSN.node[2].nic.ids 	neigh83DropGlob 	0
scalar IDSforWSN.node[2].nic.ids 	neighbour83IntentionalPacketDropping 	0
scalar IDSforWSN.node[2].nic.ids 	neigh169PackRec 	31
scalar IDSforWSN.node[2].nic.ids 	neigh169PackFwd 	9
scalar IDSforWSN.node[2].nic.ids 	neigh169DropLoc 	1
scalar IDSforWSN.node[2].nic.ids 	neigh169DropGlob 	0
scalar IDSforWSN.node[2].nic.ids 	neighbour169IntentionalPacketDropping 	0
scalar IDSforWSN.node[2].nic.ids 	neigh196PackRec 	52
scalar IDSforWSN.node[2].nic.ids 	neigh196PackFwd 	2
scalar IDSforWSN.node[2].nic.ids 	neigh196DropLoc 	1
scalar IDSforWSN.node[2].nic.ids 	neigh196DropGlob 	0
scalar IDSforWSN.node[2].nic.ids 	neighbour196IntentionalPacketDropping 	0
scalar IDSforWSN.node[2].nic.ids 	neigh221PackRec 	58
scalar IDSforWSN.node[2].nic.ids 	neigh221PackFwd 	58
scalar IDSforWSN.node[2].nic.ids 	neigh221DropLoc 	0
scalar IDSforWSN.node[2].nic.ids 	neigh221DropGlob 	0
scalar IDSforWSN.node[2].nic.ids 	neighbour221IntentionalPacketDropping 	0
scalar IDSforWSN.node[2].nic.ids 	neigh226PackRec 	599
scalar IDSforWSN.node[2].nic.ids 	neigh226PackFwd 	69
scalar IDSforWSN.node[2].nic.ids 	neigh226DropLoc 	1
scalar IDSforWSN.node[2].nic.ids 	neigh226DropGlob 	1
scalar IDSforWSN.node[2].nic.ids 	neighbour226IntentionalPacketDropping 	0
scalar IDSforWSN.node[2].nic.ids 	neigh235PackRec 	97
scalar IDSforWSN.node[2].nic.ids 	neigh235PackFwd 	7
scalar IDSforWSN.node[2].nic.ids 	neigh235DropLoc 	1
scalar IDSforWSN.node[2].nic.ids 	neigh235DropGlob 	1
scalar IDSforWSN.node[2].nic.ids 	neighbour235IntentionalPacketDropping 	0
scalar IDSforWSN.node[2].nic.ids 	Neigbors_forwardersMap 	8
scalar IDSforWSN.node[2].nic.ids 	Neighbors_neighborsSet 	22
scalar IDSforWSN.node[2].nic.ids 	data_packets_intercepted 	1896
scalar IDSforWSN.node[2].nic.ids 	data_packets_me_to_somebody 	120
scalar IDSforWSN.node[2].nic.ids 	data_packets_somebody_to_me 	60
scalar IDSforWSN.node[2].nic.ids 	data_packets_somebody_to_somebody 	1716
scalar IDSforWSN.node[3].nic.ids 	neigh6PackRec 	58
scalar IDSforWSN.node[3].nic.ids 	neigh6PackFwd 	2
scalar IDSforWSN.node[3].nic.ids 	neigh6DropLoc 	1
scalar IDSforWSN.node[3].nic.ids 	neigh6DropGlob 	0
scalar IDSforWSN.node[3].nic.ids 	neighbour6IntentionalPacketDropping 	0
scalar IDSforWSN.node[3].nic.ids 	neigh13PackRec 	55
scalar IDSforWSN.node[3].nic.ids 	neigh13PackFwd 	34
scalar IDSforWSN.node[3].nic.ids 	neigh13DropLoc 	1
scalar IDSforWSN.node[3].nic.ids 	neigh13DropGlob 	0
scalar IDSforWSN.node[3].nic.ids 	neighbour13IntentionalPacketDropping 	0
scalar IDSforWSN.node[3].nic.ids 	neigh36PackRec 	4
scalar IDSforWSN.node[3].nic.ids 	neigh36PackFwd 	0
scalar IDSforWSN.node[3].nic.ids 	neigh36DropLoc 	1
scalar IDSforWSN.node[3].nic.ids 	neigh36DropGlob 	0
scalar IDSforWSN.node[3].nic.ids 	neighbour36IntentionalPacketDropping 	0
scalar IDSforWSN.node[3].nic.ids 	neigh39PackRec 	40
scalar IDSforWSN.node[3].nic.ids 	neigh39PackFwd 	13
scalar IDSforWSN.node[3].nic.ids 	neigh39DropLoc 	1
scalar IDSforWSN.node[3].nic.ids 	neigh39DropGlob 	0
scalar IDSforWSN.node[3].nic.ids 	neighbour39IntentionalPacketDropping 	0
scalar IDSforWSN.node[3].nic.ids 	neigh57PackRec 	60
scalar IDSforWSN.node[3].nic.ids 	neigh57PackFwd 	60
scalar IDSforWSN.node[3].nic.ids 	neigh57DropLoc 	0
scalar IDSforWSN.node[3].nic.ids 	neigh57DropGlob 	0
scalar IDSforWSN.node[3].nic.ids 	neighbour57IntentionalPacketDropping 	0
scalar IDSforWSN.node[3].nic.ids 	neigh73PackRec 	444
scalar IDSforWSN.node[3].nic.ids 	neigh73PackFwd 	80
scalar IDSforWSN.node[3].nic.ids 	neigh73DropLoc 	1
scalar IDSforWSN.node[3].nic.ids 	neigh73DropGlob 	1
scalar IDSforWSN.node[3].nic.ids 	neighbour73IntentionalPacketDropping 	0
scalar IDSforWSN.node[3].nic.ids 	neigh81PackRec 	388
scalar IDSforWSN.node[3].nic.ids 	neigh81PackFwd 	153
scalar IDSforWSN.node[3].nic.ids 	neigh81DropLoc 	1
scalar IDSforWSN.node[3].nic.ids 	neigh81DropGlob 	1
scalar IDSforWSN.node[3].nic.ids 	neighbour81IntentionalPacketDropping 	0
scalar IDSforWSN.node[3].nic.ids 	neigh120PackRec 	115
scalar IDSforWSN.node[3].nic.ids 	neigh120PackFwd 	108
scalar IDSforWSN.node[3].nic.ids 	neigh120DropLoc 	1
scalar IDSforWSN.node[3].nic.ids 	neigh120DropGlob 	0
scalar IDSforWSN.node[3].nic.ids 	neighbour120IntentionalPacketDropping 	0
scalar IDSforWSN.node[3].nic.ids 	neigh142PackRec 	300
scalar IDSforWSN.node[3].nic.ids 	neigh142PackFwd 	275
scalar IDSforWSN.node[3].nic.ids 	neigh142DropLoc 	1
scalar IDSforWSN.node[3].nic.ids 	neigh142DropGlob 	0
scalar IDSforWSN.node[3].nic.ids 	neighbour142IntentionalPacketDropping 	0
scalar IDSforWSN.node[3].nic.ids 	neigh197PackRec 	371
scalar IDSforWSN.node[3].nic.ids 	neigh197PackFwd 	11
scalar IDSforWSN.node[3].nic.ids 	neigh197DropLoc 	1
scalar IDSforWSN.node[3].nic.ids 	neigh197DropGlob 	1
scalar IDSforWSN.node[3].nic.ids 	neighbour197IntentionalPacketDropping 	0
scalar IDSforWSN.node[3].nic.ids 	neigh203PackRec 	297
scalar IDSforWSN.node[3].nic.ids 	neigh203PackFwd 	285
scalar IDSforWSN.node[3].nic.ids 	neigh203DropLoc 	1
scalar IDSforWSN.node[3].nic.ids 	neigh203DropGlob 	0
scalar IDSforWSN.node[3].nic.ids 	neighbour203IntentionalPacketDropping 	0
scalar IDSforWSN.node[3].nic.ids 	neigh224PackRec 	2
scalar IDSforWSN.node[3].nic.ids 	neigh224PackFwd 	0
scalar IDSforWSN.node[3].nic.ids 	neigh224DropLoc 	1
scalar IDSforWSN.node[3].nic.ids 	neigh224DropGlob 	0
scalar IDSforWSN.node[3].nic.ids 	neighbour224IntentionalPacketDropping 	0
scalar IDSforWSN.node[3].nic.ids 	Neigbors_forwardersMap 	12
scalar IDSforWSN.node[3].nic.ids 	Neighbors_neighborsSet 	30
scalar IDSforWSN.node[3].nic.ids 	data_packets_intercepted 	2341
scalar IDSforWSN.node[3].nic.ids 	data_packets_me_to_somebody 	180
scalar IDSforWSN.node[3].nic.ids 	data_packets_somebody_to_me 	120
scalar IDSforWSN.node[3].nic.ids 	data_packets_somebody_to_somebody 	2041
scalar IDSforWSN.node[4].nic.ids 	neigh17PackRec 	178
scalar IDSforWSN.node[4].nic.ids 	neigh17PackFwd 	168
scalar IDSforWSN.node[4].nic.ids 	neigh17DropLoc 	1
scalar IDSforWSN.node[4].nic.ids 	neigh17DropGlob 	0
scalar IDSforWSN.node[4].nic.ids 	neighbour17IntentionalPacketDropping 	0
scalar IDSforWSN.node[4].nic.ids 	neigh34PackRec 	18
scalar IDSforWSN.node[4].nic.ids 	neigh34PackFwd 	0
scalar IDSforWSN.node[4].nic.ids 	neigh34DropLoc 	1
scalar IDSforWSN.node[4].nic.ids 	neigh34DropGlob 	0
scalar IDSforWSN.node[4].nic.ids 	neighbour34IntentionalPacketDropping 	0
scalar IDSforWSN.node[4].nic.ids 	neigh35PackRec 	216
scalar IDSforWSN.node[4].nic.ids 	neigh35PackFwd 	164
scalar IDSforWSN.node[4].nic.ids 	neigh35DropLoc 	1
scalar IDSforWSN.node[4].nic.ids 	neigh35DropGlob 	0
scalar IDSforWSN.node[4].nic.ids 	neighbour35IntentionalPacketDropping 	0
scalar IDSforWSN.node[4].nic.ids 	neigh38PackRec 	28
scalar IDSforWSN.node[4].nic.ids 	neigh38PackFwd 	4
scalar IDSforWSN.node[4].nic.ids 	neigh38DropLoc 	1
scalar IDSforWSN.node[4].nic.ids 	neigh38DropGlob 	0
scalar IDSforWSN.node[4].nic.ids 	neighbour38IntentionalPacketDropping 	0
scalar IDSforWSN.node[4].nic.ids 	neigh42PackRec 	7
scalar IDSforWSN.node[4].nic.ids 	neigh42PackFwd 	4
scalar IDSforWSN.node[4].nic.ids 	neigh42DropLoc 	1
scalar IDSforWSN.node[4].nic.ids 	neigh42DropGlob 	0
scalar IDSforWSN.node[4].nic.ids 	neighbour42IntentionalPacketDropping 	0
scalar IDSforWSN.node[4].nic.ids 	neigh95PackRec 	45
scalar IDSforWSN.node[4].nic.ids 	neigh95PackFwd 	45
scalar IDSforWSN.node[4].nic.ids 	neigh95DropLoc 	0
scalar IDSforWSN.node[4].nic.ids 	neigh95DropGlob 	0
scalar IDSforWSN.node[4].nic.ids 	neighbour95IntentionalPacketDropping 	0
scalar IDSforWSN.node[4].nic.ids 	neigh124PackRec 	284
scalar IDSforWSN.node[4].nic.ids 	neigh124PackFwd 	105
scalar IDSforWSN.node[4].nic.ids 	neigh124DropLoc 	1
scalar IDSforWSN.node[4].nic.ids 	neigh124DropGlob 	1
scalar IDSforWSN.node[4].nic.ids 	neighbour124IntentionalPacketDropping 	0
scalar IDSforWSN.node[4].nic.ids 	neigh165PackRec 	482
scalar IDSforWSN.node[4].nic.ids 	neigh165PackFwd 	38
scalar IDSforWSN.node[4].nic.ids 	neigh165DropLoc 	1
scalar IDSforWSN.node[4].nic.ids 	neigh165DropGlob 	1
scalar IDSforWSN.node[4].nic.ids 	neighbour165IntentionalPacketDropping 	0
scalar IDSforWSN.node[4].nic.ids 	neigh212PackRec 	290
scalar IDSforWSN.node[4].nic.ids 	neigh212PackFwd 	219
scalar IDSforWSN.node[4].nic.ids 	neigh212DropLoc 	1
scalar IDSforWSN.node[4].nic.ids 	neigh212DropGlob 	0
scalar IDSforWSN.node[4].nic.ids 	neighbour212IntentionalPacketDropping 	0
scalar IDSforWSN.node[4].nic.ids 	neigh216PackRec 	3
scalar IDSforWSN.node[4].nic.ids 	neigh216PackFwd 	0
scalar IDSforWSN.node[4].nic.ids 	neigh216DropLoc 	1
scalar IDSforWSN.node[4].nic.ids 	neigh216DropGlob 	0
scalar IDSforWSN.node[4].nic.ids 	neighbour216IntentionalPacketDropping 	0
scalar IDSforWSN.node[4].nic.ids 	Neigbors_forwardersMap 	10
scalar IDSforWSN.node[4].nic.ids 	Neighbors_neighborsSet 	26
scalar IDSforWSN.node[4].nic.ids 	data_packets_intercepted 	1680
scalar IDSforWSN.node[4].nic.ids 	data_packets_me_to_somebody 	60
scalar IDSforWSN.node[4].nic.ids 	data_packets_somebody_to_me 	0
scalar IDSforWSN.node[4].nic.ids 	data_packets_somebody_to_somebody 	1620
scalar IDSforWSN.node[5].nic.ids 	neigh0PackRec 	528
scalar IDSforWSN.node[5].nic.ids 	neigh0PackFwd 	293
scalar IDSforWSN.node[5].nic.ids 	neigh0DropLoc 	1
scalar IDSforWSN.node[5].nic.ids 	neigh0DropGlob 	1
scalar IDSforWSN.node[5].nic.ids 	neighbour0IntentionalPacketDropping 	0
scalar IDSforWSN.node[5].nic.ids 	neigh19PackRec 	1452
scalar IDSforWSN.node[5].nic.ids 	neigh19PackFwd 	124
scalar IDSforWSN.node[5].nic.ids 	neigh19DropLoc 	1
scalar IDSforWSN.node[5].nic.ids 	neigh19DropGlob 	1
scalar IDSforWSN.node[5].nic.ids 	neighbour19IntentionalPacketDropping 	0
scalar IDSforWSN.node[5].nic.ids 	neigh27PackRec 	1114
scalar IDSforWSN.node[5].nic.ids 	neigh27PackFwd 	844
scalar IDSforWSN.node[5].nic.ids 	neigh27DropLoc 	1
scalar IDSforWSN.node[5].nic.ids 	neigh27DropGlob 	1
scalar IDSforWSN.node[5].nic.ids 	neighbour27IntentionalPacketDropping 	0
scalar IDSforWSN.node[5].nic.ids 	neigh28PackRec 	5
scalar IDSforWSN.node[5].nic.ids 	neigh28PackFwd 	0
scalar IDSforWSN.node[5].nic.ids 	neigh28DropLoc 	1
scalar IDSforWSN.node[5].nic.ids 	neigh28DropGlob 	0
scalar IDSforWSN.node[5].nic.ids 	neighbour28IntentionalPacketDropping 	0
scalar IDSforWSN.node[5].nic.ids 	neigh29PackRec 	45
scalar IDSforWSN.node[5].nic.ids 	neigh29PackFwd 	10
scalar IDSforWSN.node[5].nic.ids 	neigh29DropLoc 	1
scalar IDSforWSN.node[5].nic.ids 	neigh29DropGlob 	1
scalar IDSforWSN.node[5].nic.ids 	neighbour29IntentionalPacketDropping 	0
scalar IDSforWSN.node[5].nic.ids 	neigh41PackRec 	9
scalar IDSforWSN.node[5].nic.ids 	neigh41PackFwd 	3
scalar IDSforWSN.node[5].nic.ids 	neigh41DropLoc 	1
scalar IDSforWSN.node[5].nic.ids 	neigh41DropGlob 	0
scalar IDSforWSN.node[5].nic.ids 	neighbour41IntentionalPacketDropping 	0.5
scalar IDSforWSN.node[5].nic.ids 	neigh70PackRec 	194
scalar IDSforWSN.node[5].nic.ids 	neigh70PackFwd 	20
scalar IDSforWSN.node[5].nic.ids 	neigh70DropLoc 	1
scalar IDSforWSN.node[5].nic.ids 	neigh70DropGlob 	1
scalar IDSforWSN.node[5].nic.ids 	neighbour70IntentionalPacketDropping 	0
scalar IDSforWSN.node[5].nic.ids 	neigh93PackRec 	64
scalar IDSforWSN.node[5].nic.ids 	neigh93PackFwd 	2
scalar IDSforWSN.node[5].nic.ids 	neigh93DropLoc 	1
scalar IDSforWSN.node[5].nic.ids 	neigh93DropGlob 	1
scalar IDSforWSN.node[5].nic.ids 	neighbour93IntentionalPacketDropping 	0
scalar IDSforWSN.node[5].nic.ids 	neigh102PackRec 	31
scalar IDSforWSN.node[5].nic.ids 	neigh102PackFwd 	8
scalar IDSforWSN.node[5].nic.ids 	neigh102DropLoc 	1
scalar IDSforWSN.node[5].nic.ids 	neigh102DropGlob 	0
scalar IDSforWSN.node[5].nic.ids 	neighbour102IntentionalPacketDropping 	0
scalar IDSforWSN.node[5].nic.ids 	neigh104PackRec 	6
scalar IDSforWSN.node[5].nic.ids 	neigh104PackFwd 	3
scalar IDSforWSN.node[5].nic.ids 	neigh104DropLoc 	1
scalar IDSforWSN.node[5].nic.ids 	neigh104DropGlob 	0
scalar IDSforWSN.node[5].nic.ids 	neighbour104IntentionalPacketDropping 	0
scalar IDSforWSN.node[5].nic.ids 	neigh113PackRec 	15
scalar IDSforWSN.node[5].nic.ids 	neigh113PackFwd 	2
scalar IDSforWSN.node[5].nic.ids 	neigh113DropLoc 	1
scalar IDSforWSN.node[5].nic.ids 	neigh113DropGlob 	1
scalar IDSforWSN.node[5].nic.ids 	neighbour113IntentionalPacketDropping 	0
scalar IDSforWSN.node[5].nic.ids 	neigh116PackRec 	37
scalar IDSforWSN.node[5].nic.ids 	neigh116PackFwd 	2
scalar IDSforWSN.node[5].nic.ids 	neigh116DropLoc 	1
scalar IDSforWSN.node[5].nic.ids 	neigh116DropGlob 	1
scalar IDSforWSN.node[5].nic.ids 	neighbour116IntentionalPacketDropping 	0
scalar IDSforWSN.node[5].nic.ids 	neigh127PackRec 	83
scalar IDSforWSN.node[5].nic.ids 	neigh127PackFwd 	27
scalar IDSforWSN.node[5].nic.ids 	neigh127DropLoc 	1
scalar IDSforWSN.node[5].nic.ids 	neigh127DropGlob 	1
scalar IDSforWSN.node[5].nic.ids 	neighbour127IntentionalPacketDropping 	0
scalar IDSforWSN.node[5].nic.ids 	neigh158PackRec 	102
scalar IDSforWSN.node[5].nic.ids 	neigh158PackFwd 	81
scalar IDSforWSN.node[5].nic.ids 	neigh158DropLoc 	1
scalar IDSforWSN.node[5].nic.ids 	neigh158DropGlob 	0
scalar IDSforWSN.node[5].nic.ids 	neighbour158IntentionalPacketDropping 	0
scalar IDSforWSN.node[5].nic.ids 	neigh172PackRec 	10
scalar IDSforWSN.node[5].nic.ids 	neigh172PackFwd 	2
scalar IDSforWSN.node[5].nic.ids 	neigh172DropLoc 	1
scalar IDSforWSN.node[5].nic.ids 	neigh172DropGlob 	0
scalar IDSforWSN.node[5].nic.ids 	neighbour172IntentionalPacketDropping 	0
scalar IDSforWSN.node[5].nic.ids 	neigh200PackRec 	304
scalar IDSforWSN.node[5].nic.ids 	neigh200PackFwd 	274
scalar IDSforWSN.node[5].nic.ids 	neigh200DropLoc 	1
scalar IDSforWSN.node[5].nic.ids 	neigh200DropGlob 	1
scalar IDSforWSN.node[5].nic.ids 	neighbour200IntentionalPacketDropping 	0
scalar IDSforWSN.node[5].nic.ids 	neigh233PackRec 	1
scalar IDSforWSN.node[5].nic.ids 	neigh233PackFwd 	0
scalar IDSforWSN.node[5].nic.ids 	neigh233DropLoc 	1
scalar IDSforWSN.node[5].nic.ids 	neigh233DropGlob 	0
scalar IDSforWSN.node[5].nic.ids 	neighbour233IntentionalPacketDropping 	0
scalar IDSforWSN.node[5].nic.ids 	neigh237PackRec 	115
scalar IDSforWSN.node[5].nic.ids 	neigh237PackFwd 	88
scalar IDSforWSN.node[5].nic.ids 	neigh237DropLoc 	1
scalar IDSforWSN.node[5].nic.ids 	neigh237DropGlob 	0
scalar IDSforWSN.node[5].nic.ids 	neighbour237IntentionalPacketDropping 	0
scalar IDSforWSN.node[5].nic.ids 	Neigbors_forwardersMap 	18
scalar IDSforWSN.node[5].nic.ids 	Neighbors_neighborsSet 	49
scalar IDSforWSN.node[5].nic.ids 	data_packets_intercepted 	5406
scalar IDSforWSN.node[5].nic.ids 	data_packets_me_to_somebody 	948
scalar IDSforWSN.node[5].nic.ids 	data_packets_somebody_to_me 	888
scalar IDSforWSN.node[5].nic.ids 	data_packets_somebody_to_somebody 	3570
scalar IDSforWSN.node[6].nic.ids 	neigh0PackRec 	127
scalar IDSforWSN.node[6].nic.ids 	neigh0PackFwd 	3
scalar IDSforWSN.node[6].nic.ids 	neigh0DropLoc 	1
scalar IDSforWSN.node[6].nic.ids 	neigh0DropGlob 	1
scalar IDSforWSN.node[6].nic.ids 	neighbour0IntentionalPacketDropping 	0
scalar IDSforWSN.node[6].nic.ids 	neigh9PackRec 	71
scalar IDSforWSN.node[6].nic.ids 	neigh9PackFwd 	9
scalar IDSforWSN.node[6].nic.ids 	neigh9DropLoc 	1
scalar IDSforWSN.node[6].nic.ids 	neigh9DropGlob 	0
scalar IDSforWSN.node[6].nic.ids 	neighbour9IntentionalPacketDropping 	0
scalar IDSforWSN.node[6].nic.ids 	neigh13PackRec 	52
scalar IDSforWSN.node[6].nic.ids 	neigh13PackFwd 	52
scalar IDSforWSN.node[6].nic.ids 	neigh13DropLoc 	0
scalar IDSforWSN.node[6].nic.ids 	neigh13DropGlob 	0
scalar IDSforWSN.node[6].nic.ids 	neighbour13IntentionalPacketDropping 	0
scalar IDSforWSN.node[6].nic.ids 	neigh15PackRec 	119
scalar IDSforWSN.node[6].nic.ids 	neigh15PackFwd 	115
scalar IDSforWSN.node[6].nic.ids 	neigh15DropLoc 	1
scalar IDSforWSN.node[6].nic.ids 	neigh15DropGlob 	0
scalar IDSforWSN.node[6].nic.ids 	neighbour15IntentionalPacketDropping 	0
scalar IDSforWSN.node[6].nic.ids 	neigh28PackRec 	286
scalar IDSforWSN.node[6].nic.ids 	neigh28PackFwd 	56
scalar IDSforWSN.node[6].nic.ids 	neigh28DropLoc 	1
scalar IDSforWSN.node[6].nic.ids 	neigh28DropGlob 	0
scalar IDSforWSN.node[6].nic.ids 	neighbour28IntentionalPacketDropping 	0
scalar IDSforWSN.node[6].nic.ids 	neigh39PackRec 	27
scalar IDSforWSN.node[6].nic.ids 	neigh39PackFwd 	26
scalar IDSforWSN.node[6].nic.ids 	neigh39DropLoc 	1
scalar IDSforWSN.node[6].nic.ids 	neigh39DropGlob 	0
scalar IDSforWSN.node[6].nic.ids 	neighbour39IntentionalPacketDropping 	0
scalar IDSforWSN.node[6].nic.ids 	neigh41PackRec 	176
scalar IDSforWSN.node[6].nic.ids 	neigh41PackFwd 	31
scalar IDSforWSN.node[6].nic.ids 	neigh41DropLoc 	1
scalar IDSforWSN.node[6].nic.ids 	neigh41DropGlob 	0
scalar IDSforWSN.node[6].nic.ids 	neighbour41IntentionalPacketDropping 	0.5
scalar IDSforWSN.node[6].nic.ids 	neigh57PackRec 	3
scalar IDSforWSN.node[6].nic.ids 	neigh57PackFwd 	1
scalar IDSforWSN.node[6].nic.ids 	neigh57DropLoc 	1
scalar IDSforWSN.node[6].nic.ids 	neigh57DropGlob 	0
scalar IDSforWSN.node[6].nic.ids 	neighbour57IntentionalPacketDropping 	0
scalar IDSforWSN.node[6].nic.ids 	neigh73PackRec 	46
scalar IDSforWSN.node[6].nic.ids 	neigh73PackFwd 	29
scalar IDSforWSN.node[6].nic.ids 	neigh73DropLoc 	1
scalar IDSforWSN.node[6].nic.ids 	neigh73DropGlob 	0
scalar IDSforWSN.node[6].nic.ids 	neighbour73IntentionalPacketDropping 	0
scalar IDSforWSN.node[6].nic.ids 	neigh81PackRec 	153
scalar IDSforWSN.node[6].nic.ids 	neigh81PackFwd 	87
scalar IDSforWSN.node[6].nic.ids 	neigh81DropLoc 	1
scalar IDSforWSN.node[6].nic.ids 	neigh81DropGlob 	1
scalar IDSforWSN.node[6].nic.ids 	neighbour81IntentionalPacketDropping 	0
scalar IDSforWSN.node[6].nic.ids 	neigh93PackRec 	69
scalar IDSforWSN.node[6].nic.ids 	neigh93PackFwd 	0
scalar IDSforWSN.node[6].nic.ids 	neigh93DropLoc 	1
scalar IDSforWSN.node[6].nic.ids 	neigh93DropGlob 	0
scalar IDSforWSN.node[6].nic.ids 	neighbour93IntentionalPacketDropping 	0
scalar IDSforWSN.node[6].nic.ids 	neigh104PackRec 	28
scalar IDSforWSN.node[6].nic.ids 	neigh104PackFwd 	2
scalar IDSforWSN.node[6].nic.ids 	neigh104DropLoc 	1
scalar IDSforWSN.node[6].nic.ids 	neigh104DropGlob 	0
scalar IDSforWSN.node[6].nic.ids 	neighbour104IntentionalPacketDropping 	0
scalar IDSforWSN.node[6].nic.ids 	neigh136PackRec 	5
scalar IDSforWSN.node[6].nic.ids 	neigh136PackFwd 	0
scalar IDSforWSN.node[6].nic.ids 	neigh136DropLoc 	1
scalar IDSforWSN.node[6].nic.ids 	neigh136DropGlob 	0
scalar IDSforWSN.node[6].nic.ids 	neighbour136IntentionalPacketDropping 	0
scalar IDSforWSN.node[6].nic.ids 	neigh142PackRec 	42
scalar IDSforWSN.node[6].nic.ids 	neigh142PackFwd 	14
scalar IDSforWSN.node[6].nic.ids 	neigh142DropLoc 	1
scalar IDSforWSN.node[6].nic.ids 	neigh142DropGlob 	0
scalar IDSforWSN.node[6].nic.ids 	neighbour142IntentionalPacketDropping 	0
scalar IDSforWSN.node[6].nic.ids 	neigh158PackRec 	4
scalar IDSforWSN.node[6].nic.ids 	neigh158PackFwd 	0
scalar IDSforWSN.node[6].nic.ids 	neigh158DropLoc 	1
scalar IDSforWSN.node[6].nic.ids 	neigh158DropGlob 	0
scalar IDSforWSN.node[6].nic.ids 	neighbour158IntentionalPacketDropping 	0
scalar IDSforWSN.node[6].nic.ids 	neigh194PackRec 	239
scalar IDSforWSN.node[6].nic.ids 	neigh194PackFwd 	238
scalar IDSforWSN.node[6].nic.ids 	neigh194DropLoc 	1
scalar IDSforWSN.node[6].nic.ids 	neigh194DropGlob 	0
scalar IDSforWSN.node[6].nic.ids 	neighbour194IntentionalPacketDropping 	0
scalar IDSforWSN.node[6].nic.ids 	neigh197PackRec 	825
scalar IDSforWSN.node[6].nic.ids 	neigh197PackFwd 	603
scalar IDSforWSN.node[6].nic.ids 	neigh197DropLoc 	1
scalar IDSforWSN.node[6].nic.ids 	neigh197DropGlob 	1
scalar IDSforWSN.node[6].nic.ids 	neighbour197IntentionalPacketDropping 	0
scalar IDSforWSN.node[6].nic.ids 	neigh203PackRec 	2
scalar IDSforWSN.node[6].nic.ids 	neigh203PackFwd 	0
scalar IDSforWSN.node[6].nic.ids 	neigh203DropLoc 	1
scalar IDSforWSN.node[6].nic.ids 	neigh203DropGlob 	0
scalar IDSforWSN.node[6].nic.ids 	neighbour203IntentionalPacketDropping 	0
scalar IDSforWSN.node[6].nic.ids 	neigh224PackRec 	29
scalar IDSforWSN.node[6].nic.ids 	neigh224PackFwd 	11
scalar IDSforWSN.node[6].nic.ids 	neigh224DropLoc 	1
scalar IDSforWSN.node[6].nic.ids 	neigh224DropGlob 	0
scalar IDSforWSN.node[6].nic.ids 	neighbour224IntentionalPacketDropping 	0
scalar IDSforWSN.node[6].nic.ids 	neigh236PackRec 	887
scalar IDSforWSN.node[6].nic.ids 	neigh236PackFwd 	234
scalar IDSforWSN.node[6].nic.ids 	neigh236DropLoc 	1
scalar IDSforWSN.node[6].nic.ids 	neigh236DropGlob 	1
scalar IDSforWSN.node[6].nic.ids 	neighbour236IntentionalPacketDropping 	0
scalar IDSforWSN.node[6].nic.ids 	neigh237PackRec 	23
scalar IDSforWSN.node[6].nic.ids 	neigh237PackFwd 	5
scalar IDSforWSN.node[6].nic.ids 	neigh237DropLoc 	1
scalar IDSforWSN.node[6].nic.ids 	neigh237DropGlob 	0
scalar IDSforWSN.node[6].nic.ids 	neighbour237IntentionalPacketDropping 	0
scalar IDSforWSN.node[6].nic.ids 	neigh241PackRec 	329
scalar IDSforWSN.node[6].nic.ids 	neigh241PackFwd 	8
scalar IDSforWSN.node[6].nic.ids 	neigh241DropLoc 	1
scalar IDSforWSN.node[6].nic.ids 	neigh241DropGlob 	1
scalar IDSforWSN.node[6].nic.ids 	neighbour241IntentionalPacketDropping 	0
scalar IDSforWSN.node[6].nic.ids 	Neigbors_forwardersMap 	22
scalar IDSforWSN.node[6].nic.ids 	Neighbors_neighborsSet 	44
scalar IDSforWSN.node[6].nic.ids 	data_packets_intercepted 	3853
scalar IDSforWSN.node[6].nic.ids 	data_packets_me_to_somebody 	239
scalar IDSforWSN.node[6].nic.ids 	data_packets_somebody_to_me 	179
scalar IDSforWSN.node[6].nic.ids 	data_packets_somebody_to_somebody 	3435
scalar IDSforWSN.node[7].nic.ids 	neigh34PackRec 	349
scalar IDSforWSN.node[7].nic.ids 	neigh34PackFwd 	347
scalar IDSforWSN.node[7].nic.ids 	neigh34DropLoc 	1
scalar IDSforWSN.node[7].nic.ids 	neigh34DropGlob 	0
scalar IDSforWSN.node[7].nic.ids 	neighbour34IntentionalPacketDropping 	0
scalar IDSforWSN.node[7].nic.ids 	neigh36PackRec 	31
scalar IDSforWSN.node[7].nic.ids 	neigh36PackFwd 	13
scalar IDSforWSN.node[7].nic.ids 	neigh36DropLoc 	1
scalar IDSforWSN.node[7].nic.ids 	neigh36DropGlob 	0
scalar IDSforWSN.node[7].nic.ids 	neighbour36IntentionalPacketDropping 	0
scalar IDSforWSN.node[7].nic.ids 	neigh38PackRec 	17
scalar IDSforWSN.node[7].nic.ids 	neigh38PackFwd 	5
scalar IDSforWSN.node[7].nic.ids 	neigh38DropLoc 	1
scalar IDSforWSN.node[7].nic.ids 	neigh38DropGlob 	0
scalar IDSforWSN.node[7].nic.ids 	neighbour38IntentionalPacketDropping 	0
scalar IDSforWSN.node[7].nic.ids 	neigh46PackRec 	412
scalar IDSforWSN.node[7].nic.ids 	neigh46PackFwd 	104
scalar IDSforWSN.node[7].nic.ids 	neigh46DropLoc 	1
scalar IDSforWSN.node[7].nic.ids 	neigh46DropGlob 	1
scalar IDSforWSN.node[7].nic.ids 	neighbour46IntentionalPacketDropping 	0
scalar IDSforWSN.node[7].nic.ids 	neigh52PackRec 	96
scalar IDSforWSN.node[7].nic.ids 	neigh52PackFwd 	59
scalar IDSforWSN.node[7].nic.ids 	neigh52DropLoc 	1
scalar IDSforWSN.node[7].nic.ids 	neigh52DropGlob 	0
scalar IDSforWSN.node[7].nic.ids 	neighbour52IntentionalPacketDropping 	0
scalar IDSforWSN.node[7].nic.ids 	neigh163PackRec 	48
scalar IDSforWSN.node[7].nic.ids 	neigh163PackFwd 	0
scalar IDSforWSN.node[7].nic.ids 	neigh163DropLoc 	1
scalar IDSforWSN.node[7].nic.ids 	neigh163DropGlob 	1
scalar IDSforWSN.node[7].nic.ids 	neighbour163IntentionalPacketDropping 	0
scalar IDSforWSN.node[7].nic.ids 	neigh165PackRec 	5
scalar IDSforWSN.node[7].nic.ids 	neigh165PackFwd 	0
scalar IDSforWSN.node[7].nic.ids 	neigh165DropLoc 	1
scalar IDSforWSN.node[7].nic.ids 	neigh165DropGlob 	0
scalar IDSforWSN.node[7].nic.ids 	neighbour165IntentionalPacketDropping 	0
scalar IDSforWSN.node[7].nic.ids 	neigh182PackRec 	210
scalar IDSforWSN.node[7].nic.ids 	neigh182PackFwd 	9
scalar IDSforWSN.node[7].nic.ids 	neigh182DropLoc 	1
scalar IDSforWSN.node[7].nic.ids 	neigh182DropGlob 	0
scalar IDSforWSN.node[7].nic.ids 	neighbour182IntentionalPacketDropping 	0
scalar IDSforWSN.node[7].nic.ids 	neigh186PackRec 	109
scalar IDSforWSN.node[7].nic.ids 	neigh186PackFwd 	1
scalar IDSforWSN.node[7].nic.ids 	neigh186DropLoc 	1
scalar IDSforWSN.node[7].nic.ids 	neigh186DropGlob 	1
scalar IDSforWSN.node[7].nic.ids 	neighbour186IntentionalPacketDropping 	0
scalar IDSforWSN.node[7].nic.ids 	neigh212PackRec 	1
scalar IDSforWSN.node[7].nic.ids 	neigh212PackFwd 	0
scalar IDSforWSN.node[7].nic.ids 	neigh212DropLoc 	1
scalar IDSforWSN.node[7].nic.ids 	neigh212DropGlob 	0
scalar IDSforWSN.node[7].nic.ids 	neighbour212IntentionalPacketDropping 	0
scalar IDSforWSN.node[7].nic.ids 	neigh216PackRec 	54
scalar IDSforWSN.node[7].nic.ids 	neigh216PackFwd 	52
scalar IDSforWSN.node[7].nic.ids 	neigh216DropLoc 	1
scalar IDSforWSN.node[7].nic.ids 	neigh216DropGlob 	0
scalar IDSforWSN.node[7].nic.ids 	neighbour216IntentionalPacketDropping 	0
scalar IDSforWSN.node[7].nic.ids 	Neigbors_forwardersMap 	11
scalar IDSforWSN.node[7].nic.ids 	Neighbors_neighborsSet 	26
scalar IDSforWSN.node[7].nic.ids 	data_packets_intercepted 	1417
scalar IDSforWSN.node[7].nic.ids 	data_packets_me_to_somebody 	60
scalar IDSforWSN.node[7].nic.ids 	data_packets_somebody_to_me 	0
scalar IDSforWSN.node[7].nic.ids 	data_packets_somebody_to_somebody 	1357
scalar IDSforWSN.node[8].nic.ids 	neigh0PackRec 	6
scalar IDSforWSN.node[8].nic.ids 	neigh0PackFwd 	0
scalar IDSforWSN.node[8].nic.ids 	neigh0DropLoc 	1
scalar IDSforWSN.node[8].nic.ids 	neigh0DropGlob 	0
scalar IDSforWSN.node[8].nic.ids 	neighbour0IntentionalPacketDropping 	0
scalar IDSforWSN.node[8].nic.ids 	neigh19PackRec 	591
scalar IDSforWSN.node[8].nic.ids 	neigh19PackFwd 	551
scalar IDSforWSN.node[8].nic.ids 	neigh19DropLoc 	1
scalar IDSforWSN.node[8].nic.ids 	neigh19DropGlob 	1
scalar IDSforWSN.node[8].nic.ids 	neighbour19IntentionalPacketDropping 	0
scalar IDSforWSN.node[8].nic.ids 	neigh27PackRec 	50
scalar IDSforWSN.node[8].nic.ids 	neigh27PackFwd 	25
scalar IDSforWSN.node[8].nic.ids 	neigh27DropLoc 	1
scalar IDSforWSN.node[8].nic.ids 	neigh27DropGlob 	1
scalar IDSforWSN.node[8].nic.ids 	neighbour27IntentionalPacketDropping 	0
scalar IDSforWSN.node[8].nic.ids 	neigh29PackRec 	3
scalar IDSforWSN.node[8].nic.ids 	neigh29PackFwd 	1
scalar IDSforWSN.node[8].nic.ids 	neigh29DropLoc 	1
scalar IDSforWSN.node[8].nic.ids 	neigh29DropGlob 	0
scalar IDSforWSN.node[8].nic.ids 	neighbour29IntentionalPacketDropping 	0
scalar IDSforWSN.node[8].nic.ids 	neigh49PackRec 	3
scalar IDSforWSN.node[8].nic.ids 	neigh49PackFwd 	1
scalar IDSforWSN.node[8].nic.ids 	neigh49DropLoc 	1
scalar IDSforWSN.node[8].nic.ids 	neigh49DropGlob 	0
scalar IDSforWSN.node[8].nic.ids 	neighbour49IntentionalPacketDropping 	0
scalar IDSforWSN.node[8].nic.ids 	neigh54PackRec 	982
scalar IDSforWSN.node[8].nic.ids 	neigh54PackFwd 	975
scalar IDSforWSN.node[8].nic.ids 	neigh54DropLoc 	1
scalar IDSforWSN.node[8].nic.ids 	neigh54DropGlob 	0
scalar IDSforWSN.node[8].nic.ids 	neighbour54IntentionalPacketDropping 	0
scalar IDSforWSN.node[8].nic.ids 	neigh59PackRec 	5
scalar IDSforWSN.node[8].nic.ids 	neigh59PackFwd 	3
scalar IDSforWSN.node[8].nic.ids 	neigh59DropLoc 	1
scalar IDSforWSN.node[8].nic.ids 	neigh59DropGlob 	0
scalar IDSforWSN.node[8].nic.ids 	neighbour59IntentionalPacketDropping 	0
scalar IDSforWSN.node[8].nic.ids 	neigh70PackRec 	98
scalar IDSforWSN.node[8].nic.ids 	neigh70PackFwd 	78
scalar IDSforWSN.node[8].nic.ids 	neigh70DropLoc 	1
scalar IDSforWSN.node[8].nic.ids 	neigh70DropGlob 	0
scalar IDSforWSN.node[8].nic.ids 	neighbour70IntentionalPacketDropping 	0
scalar IDSforWSN.node[8].nic.ids 	neigh80PackRec 	1
scalar IDSforWSN.node[8].nic.ids 	neigh80PackFwd 	0
scalar IDSforWSN.node[8].nic.ids 	neigh80DropLoc 	1
scalar IDSforWSN.node[8].nic.ids 	neigh80DropGlob 	0
scalar IDSforWSN.node[8].nic.ids 	neighbour80IntentionalPacketDropping 	0
scalar IDSforWSN.node[8].nic.ids 	neigh82PackRec 	16
scalar IDSforWSN.node[8].nic.ids 	neigh82PackFwd 	11
scalar IDSforWSN.node[8].nic.ids 	neigh82DropLoc 	1
scalar IDSforWSN.node[8].nic.ids 	neigh82DropGlob 	0
scalar IDSforWSN.node[8].nic.ids 	neighbour82IntentionalPacketDropping 	0
scalar IDSforWSN.node[8].nic.ids 	neigh87PackRec 	63
scalar IDSforWSN.node[8].nic.ids 	neigh87PackFwd 	40
scalar IDSforWSN.node[8].nic.ids 	neigh87DropLoc 	1
scalar IDSforWSN.node[8].nic.ids 	neigh87DropGlob 	1
scalar IDSforWSN.node[8].nic.ids 	neighbour87IntentionalPacketDropping 	0
scalar IDSforWSN.node[8].nic.ids 	neigh90PackRec 	13
scalar IDSforWSN.node[8].nic.ids 	neigh90PackFwd 	6
scalar IDSforWSN.node[8].nic.ids 	neigh90DropLoc 	1
scalar IDSforWSN.node[8].nic.ids 	neigh90DropGlob 	0
scalar IDSforWSN.node[8].nic.ids 	neighbour90IntentionalPacketDropping 	0
scalar IDSforWSN.node[8].nic.ids 	neigh93PackRec 	8
scalar IDSforWSN.node[8].nic.ids 	neigh93PackFwd 	0
scalar IDSforWSN.node[8].nic.ids 	neigh93DropLoc 	1
scalar IDSforWSN.node[8].nic.ids 	neigh93DropGlob 	0
scalar IDSforWSN.node[8].nic.ids 	neighbour93IntentionalPacketDropping 	0
scalar IDSforWSN.node[8].nic.ids 	neigh99PackRec 	2
scalar IDSforWSN.node[8].nic.ids 	neigh99PackFwd 	0
scalar IDSforWSN.node[8].nic.ids 	neigh99DropLoc 	1
scalar IDSforWSN.node[8].nic.ids 	neigh99DropGlob 	0
scalar IDSforWSN.node[8].nic.ids 	neighbour99IntentionalPacketDropping 	0
scalar IDSforWSN.node[8].nic.ids 	neigh108PackRec 	582
scalar IDSforWSN.node[8].nic.ids 	neigh108PackFwd 	552
scalar IDSforWSN.node[8].nic.ids 	neigh108DropLoc 	1
scalar IDSforWSN.node[8].nic.ids 	neigh108DropGlob 	1
scalar IDSforWSN.node[8].nic.ids 	neighbour108IntentionalPacketDropping 	0
scalar IDSforWSN.node[8].nic.ids 	neigh113PackRec 	309
scalar IDSforWSN.node[8].nic.ids 	neigh113PackFwd 	292
scalar IDSforWSN.node[8].nic.ids 	neigh113DropLoc 	1
scalar IDSforWSN.node[8].nic.ids 	neigh113DropGlob 	0
scalar IDSforWSN.node[8].nic.ids 	neighbour113IntentionalPacketDropping 	0
scalar IDSforWSN.node[8].nic.ids 	neigh116PackRec 	291
scalar IDSforWSN.node[8].nic.ids 	neigh116PackFwd 	185
scalar IDSforWSN.node[8].nic.ids 	neigh116DropLoc 	1
scalar IDSforWSN.node[8].nic.ids 	neigh116DropGlob 	1
scalar IDSforWSN.node[8].nic.ids 	neighbour116IntentionalPacketDropping 	0
scalar IDSforWSN.node[8].nic.ids 	neigh185PackRec 	27
scalar IDSforWSN.node[8].nic.ids 	neigh185PackFwd 	17
scalar IDSforWSN.node[8].nic.ids 	neigh185DropLoc 	1
scalar IDSforWSN.node[8].nic.ids 	neigh185DropGlob 	0
scalar IDSforWSN.node[8].nic.ids 	neighbour185IntentionalPacketDropping 	0
scalar IDSforWSN.node[8].nic.ids 	neigh206PackRec 	649
scalar IDSforWSN.node[8].nic.ids 	neigh206PackFwd 	320
scalar IDSforWSN.node[8].nic.ids 	neigh206DropLoc 	1
scalar IDSforWSN.node[8].nic.ids 	neigh206DropGlob 	1
scalar IDSforWSN.node[8].nic.ids 	neighbour206IntentionalPacketDropping 	0.5
scalar IDSforWSN.node[8].nic.ids 	neigh211PackRec 	21
scalar IDSforWSN.node[8].nic.ids 	neigh211PackFwd 	3
scalar IDSforWSN.node[8].nic.ids 	neigh211DropLoc 	1
scalar IDSforWSN.node[8].nic.ids 	neigh211DropGlob 	0
scalar IDSforWSN.node[8].nic.ids 	neighbour211IntentionalPacketDropping 	0
scalar IDSforWSN.node[8].nic.ids 	neigh239PackRec 	23
scalar IDSforWSN.node[8].nic.ids 	neigh239PackFwd 	4
scalar IDSforWSN.node[8].nic.ids 	neigh239DropLoc 	1
scalar IDSforWSN.node[8].nic.ids 	neigh239DropGlob 	0
scalar IDSforWSN.node[8].nic.ids 	neighbour239IntentionalPacketDropping 	0
scalar IDSforWSN.node[8].nic.ids 	neigh246PackRec 	43
scalar IDSforWSN.node[8].nic.ids 	neigh246PackFwd 	20
scalar IDSforWSN.node[8].nic.ids 	neigh246DropLoc 	1
scalar IDSforWSN.node[8].nic.ids 	neigh246DropGlob 	0
scalar IDSforWSN.node[8].nic.ids 	neighbour246IntentionalPacketDropping 	0
scalar IDSforWSN.node[8].nic.ids 	Neigbors_forwardersMap 	22
scalar IDSforWSN.node[8].nic.ids 	Neighbors_neighborsSet 	60
scalar IDSforWSN.node[8].nic.ids 	data_packets_intercepted 	15926
scalar IDSforWSN.node[8].nic.ids 	data_packets_me_to_somebody 	2269
scalar IDSforWSN.node[8].nic.ids 	data_packets_somebody_to_me 	2209
scalar IDSforWSN.node[8].nic.ids 	data_packets_somebody_to_somebody 	11448
scalar IDSforWSN.node[9].nic.ids 	neigh0PackRec 	168
scalar IDSforWSN.node[9].nic.ids 	neigh0PackFwd 	62
scalar IDSforWSN.node[9].nic.ids 	neigh0DropLoc 	1
scalar IDSforWSN.node[9].nic.ids 	neigh0DropGlob 	1
scalar IDSforWSN.node[9].nic.ids 	neighbour0IntentionalPacketDropping 	0
scalar IDSforWSN.node[9].nic.ids 	neigh6PackRec 	2
scalar IDSforWSN.node[9].nic.ids 	neigh6PackFwd 	0
scalar IDSforWSN.node[9].nic.ids 	neigh6DropLoc 	1
scalar IDSforWSN.node[9].nic.ids 	neigh6DropGlob 	0
scalar IDSforWSN.node[9].nic.ids 	neighbour6IntentionalPacketDropping 	0
scalar IDSforWSN.node[9].nic.ids 	neigh15PackRec 	1
scalar IDSforWSN.node[9].nic.ids 	neigh15PackFwd 	0
scalar IDSforWSN.node[9].nic.ids 	neigh15DropLoc 	1
scalar IDSforWSN.node[9].nic.ids 	neigh15DropGlob 	0
scalar IDSforWSN.node[9].nic.ids 	neighbour15IntentionalPacketDropping 	0
scalar IDSforWSN.node[9].nic.ids 	neigh19PackRec 	376
scalar IDSforWSN.node[9].nic.ids 	neigh19PackFwd 	77
scalar IDSforWSN.node[9].nic.ids 	neigh19DropLoc 	1
scalar IDSforWSN.node[9].nic.ids 	neigh19DropGlob 	1
scalar IDSforWSN.node[9].nic.ids 	neighbour19IntentionalPacketDropping 	0
scalar IDSforWSN.node[9].nic.ids 	neigh28PackRec 	114
scalar IDSforWSN.node[9].nic.ids 	neigh28PackFwd 	95
scalar IDSforWSN.node[9].nic.ids 	neigh28DropLoc 	1
scalar IDSforWSN.node[9].nic.ids 	neigh28DropGlob 	0
scalar IDSforWSN.node[9].nic.ids 	neighbour28IntentionalPacketDropping 	0
scalar IDSforWSN.node[9].nic.ids 	neigh41PackRec 	7
scalar IDSforWSN.node[9].nic.ids 	neigh41PackFwd 	0
scalar IDSforWSN.node[9].nic.ids 	neigh41DropLoc 	1
scalar IDSforWSN.node[9].nic.ids 	neigh41DropGlob 	0
scalar IDSforWSN.node[9].nic.ids 	neighbour41IntentionalPacketDropping 	0.5
scalar IDSforWSN.node[9].nic.ids 	neigh52PackRec 	4
scalar IDSforWSN.node[9].nic.ids 	neigh52PackFwd 	1
scalar IDSforWSN.node[9].nic.ids 	neigh52DropLoc 	1
scalar IDSforWSN.node[9].nic.ids 	neigh52DropGlob 	0
scalar IDSforWSN.node[9].nic.ids 	neighbour52IntentionalPacketDropping 	0
scalar IDSforWSN.node[9].nic.ids 	neigh59PackRec 	118
scalar IDSforWSN.node[9].nic.ids 	neigh59PackFwd 	55
scalar IDSforWSN.node[9].nic.ids 	neigh59DropLoc 	1
scalar IDSforWSN.node[9].nic.ids 	neigh59DropGlob 	0
scalar IDSforWSN.node[9].nic.ids 	neighbour59IntentionalPacketDropping 	0
scalar IDSforWSN.node[9].nic.ids 	neigh81PackRec 	3
scalar IDSforWSN.node[9].nic.ids 	neigh81PackFwd 	1
scalar IDSforWSN.node[9].nic.ids 	neigh81DropLoc 	1
scalar IDSforWSN.node[9].nic.ids 	neigh81DropGlob 	0
scalar IDSforWSN.node[9].nic.ids 	neighbour81IntentionalPacketDropping 	0
scalar IDSforWSN.node[9].nic.ids 	neigh93PackRec 	342
scalar IDSforWSN.node[9].nic.ids 	neigh93PackFwd 	330
scalar IDSforWSN.node[9].nic.ids 	neigh93DropLoc 	1
scalar IDSforWSN.node[9].nic.ids 	neigh93DropGlob 	0
scalar IDSforWSN.node[9].nic.ids 	neighbour93IntentionalPacketDropping 	0
scalar IDSforWSN.node[9].nic.ids 	neigh116PackRec 	2087
scalar IDSforWSN.node[9].nic.ids 	neigh116PackFwd 	1854
scalar IDSforWSN.node[9].nic.ids 	neigh116DropLoc 	1
scalar IDSforWSN.node[9].nic.ids 	neigh116DropGlob 	1
scalar IDSforWSN.node[9].nic.ids 	neighbour116IntentionalPacketDropping 	0
scalar IDSforWSN.node[9].nic.ids 	neigh136PackRec 	58
scalar IDSforWSN.node[9].nic.ids 	neigh136PackFwd 	58
scalar IDSforWSN.node[9].nic.ids 	neigh136DropLoc 	0
scalar IDSforWSN.node[9].nic.ids 	neigh136DropGlob 	0
scalar IDSforWSN.node[9].nic.ids 	neighbour136IntentionalPacketDropping 	0
scalar IDSforWSN.node[9].nic.ids 	neigh182PackRec 	46
scalar IDSforWSN.node[9].nic.ids 	neigh182PackFwd 	32
scalar IDSforWSN.node[9].nic.ids 	neigh182DropLoc 	1
scalar IDSforWSN.node[9].nic.ids 	neigh182DropGlob 	0
scalar IDSforWSN.node[9].nic.ids 	neighbour182IntentionalPacketDropping 	0
scalar IDSforWSN.node[9].nic.ids 	neigh186PackRec 	19
scalar IDSforWSN.node[9].nic.ids 	neigh186PackFwd 	5
scalar IDSforWSN.node[9].nic.ids 	neigh186DropLoc 	1
scalar IDSforWSN.node[9].nic.ids 	neigh186DropGlob 	0
scalar IDSforWSN.node[9].nic.ids 	neighbour186IntentionalPacketDropping 	0
scalar IDSforWSN.node[9].nic.ids 	neigh194PackRec 	28
scalar IDSforWSN.node[9].nic.ids 	neigh194PackFwd 	9
scalar IDSforWSN.node[9].nic.ids 	neigh194DropLoc 	1
scalar IDSforWSN.node[9].nic.ids 	neigh194DropGlob 	0
scalar IDSforWSN.node[9].nic.ids 	neighbour194IntentionalPacketDropping 	0
scalar IDSforWSN.node[9].nic.ids 	neigh197PackRec 	279
scalar IDSforWSN.node[9].nic.ids 	neigh197PackFwd 	240
scalar IDSforWSN.node[9].nic.ids 	neigh197DropLoc 	1
scalar IDSforWSN.node[9].nic.ids 	neigh197DropGlob 	1
scalar IDSforWSN.node[9].nic.ids 	neighbour197IntentionalPacketDropping 	0
scalar IDSforWSN.node[9].nic.ids 	neigh206PackRec 	737
scalar IDSforWSN.node[9].nic.ids 	neigh206PackFwd 	102
scalar IDSforWSN.node[9].nic.ids 	neigh206DropLoc 	1
scalar IDSforWSN.node[9].nic.ids 	neigh206DropGlob 	1
scalar IDSforWSN.node[9].nic.ids 	neighbour206IntentionalPacketDropping 	0.5
scalar IDSforWSN.node[9].nic.ids 	neigh224PackRec 	74
scalar IDSforWSN.node[9].nic.ids 	neigh224PackFwd 	68
scalar IDSforWSN.node[9].nic.ids 	neigh224DropLoc 	1
scalar IDSforWSN.node[9].nic.ids 	neigh224DropGlob 	0
scalar IDSforWSN.node[9].nic.ids 	neighbour224IntentionalPacketDropping 	0
scalar IDSforWSN.node[9].nic.ids 	neigh236PackRec 	1042
scalar IDSforWSN.node[9].nic.ids 	neigh236PackFwd 	1037
scalar IDSforWSN.node[9].nic.ids 	neigh236DropLoc 	1
scalar IDSforWSN.node[9].nic.ids 	neigh236DropGlob 	1
scalar IDSforWSN.node[9].nic.ids 	neighbour236IntentionalPacketDropping 	0
scalar IDSforWSN.node[9].nic.ids 	neigh239PackRec 	449
scalar IDSforWSN.node[9].nic.ids 	neigh239PackFwd 	233
scalar IDSforWSN.node[9].nic.ids 	neigh239DropLoc 	1
scalar IDSforWSN.node[9].nic.ids 	neigh239DropGlob 	1
scalar IDSforWSN.node[9].nic.ids 	neighbour239IntentionalPacketDropping 	0
scalar IDSforWSN.node[9].nic.ids 	neigh241PackRec 	1243
scalar IDSforWSN.node[9].nic.ids 	neigh241PackFwd 	1220
scalar IDSforWSN.node[9].nic.ids 	neigh241DropLoc 	1
scalar IDSforWSN.node[9].nic.ids 	neigh241DropGlob 	0
scalar IDSforWSN.node[9].nic.ids 	neighbour241IntentionalPacketDropping 	0
scalar IDSforWSN.node[9].nic.ids 	neigh246PackRec 	9
scalar IDSforWSN.node[9].nic.ids 	neigh246PackFwd 	2
scalar IDSforWSN.node[9].nic.ids 	neigh246DropLoc 	1
scalar IDSforWSN.node[9].nic.ids 	neigh246DropGlob 	0
scalar IDSforWSN.node[9].nic.ids 	neighbour246IntentionalPacketDropping 	0
scalar IDSforWSN.node[9].nic.ids 	Neigbors_forwardersMap 	22
scalar IDSforWSN.node[9].nic.ids 	Neighbors_neighborsSet 	49
scalar IDSforWSN.node[9].nic.ids 	data_packets_intercepted 	10181
scalar IDSforWSN.node[9].nic.ids 	data_packets_me_to_somebody 	230
scalar IDSforWSN.node[9].nic.ids 	data_packets_somebody_to_me 	170
scalar IDSforWSN.node[9].nic.ids 	data_packets_somebody_to_somebody 	9781
scalar IDSforWSN.node[10].nic.ids 	neigh18PackRec 	594
scalar IDSforWSN.node[10].nic.ids 	neigh18PackFwd 	581
scalar IDSforWSN.node[10].nic.ids 	neigh18DropLoc 	1
scalar IDSforWSN.node[10].nic.ids 	neigh18DropGlob 	1
scalar IDSforWSN.node[10].nic.ids 	neighbour18IntentionalPacketDropping 	0
scalar IDSforWSN.node[10].nic.ids 	neigh20PackRec 	1040
scalar IDSforWSN.node[10].nic.ids 	neigh20PackFwd 	317
scalar IDSforWSN.node[10].nic.ids 	neigh20DropLoc 	1
scalar IDSforWSN.node[10].nic.ids 	neigh20DropGlob 	1
scalar IDSforWSN.node[10].nic.ids 	neighbour20IntentionalPacketDropping 	0.5
scalar IDSforWSN.node[10].nic.ids 	neigh32PackRec 	114
scalar IDSforWSN.node[10].nic.ids 	neigh32PackFwd 	55
scalar IDSforWSN.node[10].nic.ids 	neigh32DropLoc 	1
scalar IDSforWSN.node[10].nic.ids 	neigh32DropGlob 	0
scalar IDSforWSN.node[10].nic.ids 	neighbour32IntentionalPacketDropping 	0
scalar IDSforWSN.node[10].nic.ids 	neigh71PackRec 	5
scalar IDSforWSN.node[10].nic.ids 	neigh71PackFwd 	1
scalar IDSforWSN.node[10].nic.ids 	neigh71DropLoc 	1
scalar IDSforWSN.node[10].nic.ids 	neigh71DropGlob 	0
scalar IDSforWSN.node[10].nic.ids 	neighbour71IntentionalPacketDropping 	0
scalar IDSforWSN.node[10].nic.ids 	neigh76PackRec 	16
scalar IDSforWSN.node[10].nic.ids 	neigh76PackFwd 	2
scalar IDSforWSN.node[10].nic.ids 	neigh76DropLoc 	1
scalar IDSforWSN.node[10].nic.ids 	neigh76DropGlob 	0
scalar IDSforWSN.node[10].nic.ids 	neighbour76IntentionalPacketDropping 	0
scalar IDSforWSN.node[10].nic.ids 	neigh82PackRec 	243
scalar IDSforWSN.node[10].nic.ids 	neigh82PackFwd 	28
scalar IDSforWSN.node[10].nic.ids 	neigh82DropLoc 	1
scalar IDSforWSN.node[10].nic.ids 	neigh82DropGlob 	1
scalar IDSforWSN.node[10].nic.ids 	neighbour82IntentionalPacketDropping 	0
scalar IDSforWSN.node[10].nic.ids 	neigh83PackRec 	11
scalar IDSforWSN.node[10].nic.ids 	neigh83PackFwd 	1
scalar IDSforWSN.node[10].nic.ids 	neigh83DropLoc 	1
scalar IDSforWSN.node[10].nic.ids 	neigh83DropGlob 	0
scalar IDSforWSN.node[10].nic.ids 	neighbour83IntentionalPacketDropping 	0
scalar IDSforWSN.node[10].nic.ids 	neigh87PackRec 	774
scalar IDSforWSN.node[10].nic.ids 	neigh87PackFwd 	111
scalar IDSforWSN.node[10].nic.ids 	neigh87DropLoc 	1
scalar IDSforWSN.node[10].nic.ids 	neigh87DropGlob 	1
scalar IDSforWSN.node[10].nic.ids 	neighbour87IntentionalPacketDropping 	0
scalar IDSforWSN.node[10].nic.ids 	neigh88PackRec 	60
scalar IDSforWSN.node[10].nic.ids 	neigh88PackFwd 	60
scalar IDSforWSN.node[10].nic.ids 	neigh88DropLoc 	0
scalar IDSforWSN.node[10].nic.ids 	neigh88DropGlob 	0
scalar IDSforWSN.node[10].nic.ids 	neighbour88IntentionalPacketDropping 	0
scalar IDSforWSN.node[10].nic.ids 	neigh90PackRec 	114
scalar IDSforWSN.node[10].nic.ids 	neigh90PackFwd 	6
scalar IDSforWSN.node[10].nic.ids 	neigh90DropLoc 	1
scalar IDSforWSN.node[10].nic.ids 	neigh90DropGlob 	1
scalar IDSforWSN.node[10].nic.ids 	neighbour90IntentionalPacketDropping 	0
scalar IDSforWSN.node[10].nic.ids 	neigh105PackRec 	52
scalar IDSforWSN.node[10].nic.ids 	neigh105PackFwd 	8
scalar IDSforWSN.node[10].nic.ids 	neigh105DropLoc 	1
scalar IDSforWSN.node[10].nic.ids 	neigh105DropGlob 	0
scalar IDSforWSN.node[10].nic.ids 	neighbour105IntentionalPacketDropping 	0
scalar IDSforWSN.node[10].nic.ids 	neigh106PackRec 	155
scalar IDSforWSN.node[10].nic.ids 	neigh106PackFwd 	118
scalar IDSforWSN.node[10].nic.ids 	neigh106DropLoc 	1
scalar IDSforWSN.node[10].nic.ids 	neigh106DropGlob 	0
scalar IDSforWSN.node[10].nic.ids 	neighbour106IntentionalPacketDropping 	0
scalar IDSforWSN.node[10].nic.ids 	neigh108PackRec 	96
scalar IDSforWSN.node[10].nic.ids 	neigh108PackFwd 	3
scalar IDSforWSN.node[10].nic.ids 	neigh108DropLoc 	1
scalar IDSforWSN.node[10].nic.ids 	neigh108DropGlob 	1
scalar IDSforWSN.node[10].nic.ids 	neighbour108IntentionalPacketDropping 	0
scalar IDSforWSN.node[10].nic.ids 	neigh148PackRec 	219
scalar IDSforWSN.node[10].nic.ids 	neigh148PackFwd 	204
scalar IDSforWSN.node[10].nic.ids 	neigh148DropLoc 	1
scalar IDSforWSN.node[10].nic.ids 	neigh148DropGlob 	0
scalar IDSforWSN.node[10].nic.ids 	neighbour148IntentionalPacketDropping 	0
scalar IDSforWSN.node[10].nic.ids 	neigh185PackRec 	171
scalar IDSforWSN.node[10].nic.ids 	neigh185PackFwd 	26
scalar IDSforWSN.node[10].nic.ids 	neigh185DropLoc 	1
scalar IDSforWSN.node[10].nic.ids 	neigh185DropGlob 	1
scalar IDSforWSN.node[10].nic.ids 	neighbour185IntentionalPacketDropping 	0
scalar IDSforWSN.node[10].nic.ids 	neigh190PackRec 	325
scalar IDSforWSN.node[10].nic.ids 	neigh190PackFwd 	320
scalar IDSforWSN.node[10].nic.ids 	neigh190DropLoc 	1
scalar IDSforWSN.node[10].nic.ids 	neigh190DropGlob 	0
scalar IDSforWSN.node[10].nic.ids 	neighbour190IntentionalPacketDropping 	0
scalar IDSforWSN.node[10].nic.ids 	neigh196PackRec 	1
scalar IDSforWSN.node[10].nic.ids 	neigh196PackFwd 	0
scalar IDSforWSN.node[10].nic.ids 	neigh196DropLoc 	1
scalar IDSforWSN.node[10].nic.ids 	neigh196DropGlob 	0
scalar IDSforWSN.node[10].nic.ids 	neighbour196IntentionalPacketDropping 	0
scalar IDSforWSN.node[10].nic.ids 	neigh198PackRec 	32
scalar IDSforWSN.node[10].nic.ids 	neigh198PackFwd 	21
scalar IDSforWSN.node[10].nic.ids 	neigh198DropLoc 	1
scalar IDSforWSN.node[10].nic.ids 	neigh198DropGlob 	0
scalar IDSforWSN.node[10].nic.ids 	neighbour198IntentionalPacketDropping 	0
scalar IDSforWSN.node[10].nic.ids 	neigh201PackRec 	2
scalar IDSforWSN.node[10].nic.ids 	neigh201PackFwd 	0
scalar IDSforWSN.node[10].nic.ids 	neigh201DropLoc 	1
scalar IDSforWSN.node[10].nic.ids 	neigh201DropGlob 	0
scalar IDSforWSN.node[10].nic.ids 	neighbour201IntentionalPacketDropping 	0
scalar IDSforWSN.node[10].nic.ids 	neigh205PackRec 	68
scalar IDSforWSN.node[10].nic.ids 	neigh205PackFwd 	40
scalar IDSforWSN.node[10].nic.ids 	neigh205DropLoc 	1
scalar IDSforWSN.node[10].nic.ids 	neigh205DropGlob 	0
scalar IDSforWSN.node[10].nic.ids 	neighbour205IntentionalPacketDropping 	0
scalar IDSforWSN.node[10].nic.ids 	neigh226PackRec 	51
scalar IDSforWSN.node[10].nic.ids 	neigh226PackFwd 	39
scalar IDSforWSN.node[10].nic.ids 	neigh226DropLoc 	1
scalar IDSforWSN.node[10].nic.ids 	neigh226DropGlob 	0
scalar IDSforWSN.node[10].nic.ids 	neighbour226IntentionalPacketDropping 	0
scalar IDSforWSN.node[10].nic.ids 	neigh230PackRec 	4
scalar IDSforWSN.node[10].nic.ids 	neigh230PackFwd 	0
scalar IDSforWSN.node[10].nic.ids 	neigh230DropLoc 	1
scalar IDSforWSN.node[10].nic.ids 	neigh230DropGlob 	0
scalar IDSforWSN.node[10].nic.ids 	neighbour230IntentionalPacketDropping 	0
scalar IDSforWSN.node[10].nic.ids 	neigh235PackRec 	51
scalar IDSforWSN.node[10].nic.ids 	neigh235PackFwd 	47
scalar IDSforWSN.node[10].nic.ids 	neigh235DropLoc 	1
scalar IDSforWSN.node[10].nic.ids 	neigh235DropGlob 	0
scalar IDSforWSN.node[10].nic.ids 	neighbour235IntentionalPacketDropping 	0
scalar IDSforWSN.node[10].nic.ids 	Neigbors_forwardersMap 	23
scalar IDSforWSN.node[10].nic.ids 	Neighbors_neighborsSet 	45
scalar IDSforWSN.node[10].nic.ids 	data_packets_intercepted 	4521
scalar IDSforWSN.node[10].nic.ids 	data_packets_me_to_somebody 	60
scalar IDSforWSN.node[10].nic.ids 	data_packets_somebody_to_me 	0
scalar IDSforWSN.node[10].nic.ids 	data_packets_somebody_to_somebody 	4461
scalar IDSforWSN.node[11].nic.ids 	neigh20PackRec 	23
scalar IDSforWSN.node[11].nic.ids 	neigh20PackFwd 	0
scalar IDSforWSN.node[11].nic.ids 	neigh20DropLoc 	1
scalar IDSforWSN.node[11].nic.ids 	neigh20DropGlob 	1
scalar IDSforWSN.node[11].nic.ids 	neighbour20IntentionalPacketDropping 	0.5
scalar IDSforWSN.node[11].nic.ids 	neigh32PackRec 	72
scalar IDSforWSN.node[11].nic.ids 	neigh32PackFwd 	23
scalar IDSforWSN.node[11].nic.ids 	neigh32DropLoc 	1
scalar IDSforWSN.node[11].nic.ids 	neigh32DropGlob 	0
scalar IDSforWSN.node[11].nic.ids 	neighbour32IntentionalPacketDropping 	0
scalar IDSforWSN.node[11].nic.ids 	neigh49PackRec 	9
scalar IDSforWSN.node[11].nic.ids 	neigh49PackFwd 	0
scalar IDSforWSN.node[11].nic.ids 	neigh49DropLoc 	1
scalar IDSforWSN.node[11].nic.ids 	neigh49DropGlob 	0
scalar IDSforWSN.node[11].nic.ids 	neighbour49IntentionalPacketDropping 	0
scalar IDSforWSN.node[11].nic.ids 	neigh54PackRec 	176
scalar IDSforWSN.node[11].nic.ids 	neigh54PackFwd 	1
scalar IDSforWSN.node[11].nic.ids 	neigh54DropLoc 	1
scalar IDSforWSN.node[11].nic.ids 	neigh54DropGlob 	1
scalar IDSforWSN.node[11].nic.ids 	neighbour54IntentionalPacketDropping 	0
scalar IDSforWSN.node[11].nic.ids 	neigh76PackRec 	497
scalar IDSforWSN.node[11].nic.ids 	neigh76PackFwd 	471
scalar IDSforWSN.node[11].nic.ids 	neigh76DropLoc 	1
scalar IDSforWSN.node[11].nic.ids 	neigh76DropGlob 	0
scalar IDSforWSN.node[11].nic.ids 	neighbour76IntentionalPacketDropping 	0
scalar IDSforWSN.node[11].nic.ids 	neigh78PackRec 	14
scalar IDSforWSN.node[11].nic.ids 	neigh78PackFwd 	12
scalar IDSforWSN.node[11].nic.ids 	neigh78DropLoc 	1
scalar IDSforWSN.node[11].nic.ids 	neigh78DropGlob 	0
scalar IDSforWSN.node[11].nic.ids 	neighbour78IntentionalPacketDropping 	0
scalar IDSforWSN.node[11].nic.ids 	neigh80PackRec 	25
scalar IDSforWSN.node[11].nic.ids 	neigh80PackFwd 	5
scalar IDSforWSN.node[11].nic.ids 	neigh80DropLoc 	1
scalar IDSforWSN.node[11].nic.ids 	neigh80DropGlob 	0
scalar IDSforWSN.node[11].nic.ids 	neighbour80IntentionalPacketDropping 	0
scalar IDSforWSN.node[11].nic.ids 	neigh82PackRec 	311
scalar IDSforWSN.node[11].nic.ids 	neigh82PackFwd 	84
scalar IDSforWSN.node[11].nic.ids 	neigh82DropLoc 	1
scalar IDSforWSN.node[11].nic.ids 	neigh82DropGlob 	1
scalar IDSforWSN.node[11].nic.ids 	neighbour82IntentionalPacketDropping 	0
scalar IDSforWSN.node[11].nic.ids 	neigh87PackRec 	114
scalar IDSforWSN.node[11].nic.ids 	neigh87PackFwd 	10
scalar IDSforWSN.node[11].nic.ids 	neigh87DropLoc 	1
scalar IDSforWSN.node[11].nic.ids 	neigh87DropGlob 	1
scalar IDSforWSN.node[11].nic.ids 	neighbour87IntentionalPacketDropping 	0
scalar IDSforWSN.node[11].nic.ids 	neigh88PackRec 	45
scalar IDSforWSN.node[11].nic.ids 	neigh88PackFwd 	30
scalar IDSforWSN.node[11].nic.ids 	neigh88DropLoc 	1
scalar IDSforWSN.node[11].nic.ids 	neigh88DropGlob 	0
scalar IDSforWSN.node[11].nic.ids 	neighbour88IntentionalPacketDropping 	0
scalar IDSforWSN.node[11].nic.ids 	neigh90PackRec 	1040
scalar IDSforWSN.node[11].nic.ids 	neigh90PackFwd 	424
scalar IDSforWSN.node[11].nic.ids 	neigh90DropLoc 	1
scalar IDSforWSN.node[11].nic.ids 	neigh90DropGlob 	1
scalar IDSforWSN.node[11].nic.ids 	neighbour90IntentionalPacketDropping 	0
scalar IDSforWSN.node[11].nic.ids 	neigh105PackRec 	408
scalar IDSforWSN.node[11].nic.ids 	neigh105PackFwd 	391
scalar IDSforWSN.node[11].nic.ids 	neigh105DropLoc 	1
scalar IDSforWSN.node[11].nic.ids 	neigh105DropGlob 	0
scalar IDSforWSN.node[11].nic.ids 	neighbour105IntentionalPacketDropping 	0
scalar IDSforWSN.node[11].nic.ids 	neigh106PackRec 	231
scalar IDSforWSN.node[11].nic.ids 	neigh106PackFwd 	225
scalar IDSforWSN.node[11].nic.ids 	neigh106DropLoc 	1
scalar IDSforWSN.node[11].nic.ids 	neigh106DropGlob 	0
scalar IDSforWSN.node[11].nic.ids 	neighbour106IntentionalPacketDropping 	0
scalar IDSforWSN.node[11].nic.ids 	neigh108PackRec 	506
scalar IDSforWSN.node[11].nic.ids 	neigh108PackFwd 	43
scalar IDSforWSN.node[11].nic.ids 	neigh108DropLoc 	1
scalar IDSforWSN.node[11].nic.ids 	neigh108DropGlob 	1
scalar IDSforWSN.node[11].nic.ids 	neighbour108IntentionalPacketDropping 	0
scalar IDSforWSN.node[11].nic.ids 	neigh117PackRec 	58
scalar IDSforWSN.node[11].nic.ids 	neigh117PackFwd 	50
scalar IDSforWSN.node[11].nic.ids 	neigh117DropLoc 	1
scalar IDSforWSN.node[11].nic.ids 	neigh117DropGlob 	0
scalar IDSforWSN.node[11].nic.ids 	neighbour117IntentionalPacketDropping 	0
scalar IDSforWSN.node[11].nic.ids 	neigh155PackRec 	1
scalar IDSforWSN.node[11].nic.ids 	neigh155PackFwd 	0
scalar IDSforWSN.node[11].nic.ids 	neigh155DropLoc 	1
scalar IDSforWSN.node[11].nic.ids 	neigh155DropGlob 	0
scalar IDSforWSN.node[11].nic.ids 	neighbour155IntentionalPacketDropping 	0
scalar IDSforWSN.node[11].nic.ids 	neigh167PackRec 	12
scalar IDSforWSN.node[11].nic.ids 	neigh167PackFwd 	12
scalar IDSforWSN.node[11].nic.ids 	neigh167DropLoc 	0
scalar IDSforWSN.node[11].nic.ids 	neigh167DropGlob 	0
scalar IDSforWSN.node[11].nic.ids 	neighbour167IntentionalPacketDropping 	0
scalar IDSforWSN.node[11].nic.ids 	neigh174PackRec 	73
scalar IDSforWSN.node[11].nic.ids 	neigh174PackFwd 	64
scalar IDSforWSN.node[11].nic.ids 	neigh174DropLoc 	1
scalar IDSforWSN.node[11].nic.ids 	neigh174DropGlob 	0
scalar IDSforWSN.node[11].nic.ids 	neighbour174IntentionalPacketDropping 	0
scalar IDSforWSN.node[11].nic.ids 	neigh176PackRec 	460
scalar IDSforWSN.node[11].nic.ids 	neigh176PackFwd 	227
scalar IDSforWSN.node[11].nic.ids 	neigh176DropLoc 	1
scalar IDSforWSN.node[11].nic.ids 	neigh176DropGlob 	1
scalar IDSforWSN.node[11].nic.ids 	neighbour176IntentionalPacketDropping 	0.5
scalar IDSforWSN.node[11].nic.ids 	neigh185PackRec 	129
scalar IDSforWSN.node[11].nic.ids 	neigh185PackFwd 	12
scalar IDSforWSN.node[11].nic.ids 	neigh185DropLoc 	1
scalar IDSforWSN.node[11].nic.ids 	neigh185DropGlob 	0
scalar IDSforWSN.node[11].nic.ids 	neighbour185IntentionalPacketDropping 	0
scalar IDSforWSN.node[11].nic.ids 	neigh190PackRec 	27
scalar IDSforWSN.node[11].nic.ids 	neigh190PackFwd 	7
scalar IDSforWSN.node[11].nic.ids 	neigh190DropLoc 	1
scalar IDSforWSN.node[11].nic.ids 	neigh190DropGlob 	0
scalar IDSforWSN.node[11].nic.ids 	neighbour190IntentionalPacketDropping 	0
scalar IDSforWSN.node[11].nic.ids 	neigh198PackRec 	74
scalar IDSforWSN.node[11].nic.ids 	neigh198PackFwd 	70
scalar IDSforWSN.node[11].nic.ids 	neigh198DropLoc 	1
scalar IDSforWSN.node[11].nic.ids 	neigh198DropGlob 	0
scalar IDSforWSN.node[11].nic.ids 	neighbour198IntentionalPacketDropping 	0
scalar IDSforWSN.node[11].nic.ids 	neigh201PackRec 	54
scalar IDSforWSN.node[11].nic.ids 	neigh201PackFwd 	54
scalar IDSforWSN.node[11].nic.ids 	neigh201DropLoc 	0
scalar IDSforWSN.node[11].nic.ids 	neigh201DropGlob 	0
scalar IDSforWSN.node[11].nic.ids 	neighbour201IntentionalPacketDropping 	0
scalar IDSforWSN.node[11].nic.ids 	neigh230PackRec 	16
scalar IDSforWSN.node[11].nic.ids 	neigh230PackFwd 	4
scalar IDSforWSN.node[11].nic.ids 	neigh230DropLoc 	1
scalar IDSforWSN.node[11].nic.ids 	neigh230DropGlob 	0
scalar IDSforWSN.node[11].nic.ids 	neighbour230IntentionalPacketDropping 	0
scalar IDSforWSN.node[11].nic.ids 	neigh238PackRec 	2
scalar IDSforWSN.node[11].nic.ids 	neigh238PackFwd 	1
scalar IDSforWSN.node[11].nic.ids 	neigh238DropLoc 	1
scalar IDSforWSN.node[11].nic.ids 	neigh238DropGlob 	0
scalar IDSforWSN.node[11].nic.ids 	neighbour238IntentionalPacketDropping 	0
scalar IDSforWSN.node[11].nic.ids 	Neigbors_forwardersMap 	25
scalar IDSforWSN.node[11].nic.ids 	Neighbors_neighborsSet 	55
scalar IDSforWSN.node[11].nic.ids 	data_packets_intercepted 	4603
scalar IDSforWSN.node[11].nic.ids 	data_packets_me_to_somebody 	60
scalar IDSforWSN.node[11].nic.ids 	data_packets_somebody_to_me 	0
scalar IDSforWSN.node[11].nic.ids 	data_packets_somebody_to_somebody 	4543
scalar IDSforWSN.node[12].nic.ids 	neigh0PackRec 	2
scalar IDSforWSN.node[12].nic.ids 	neigh0PackFwd 	0
scalar IDSforWSN.node[12].nic.ids 	neigh0DropLoc 	1
scalar IDSforWSN.node[12].nic.ids 	neigh0DropGlob 	0
scalar IDSforWSN.node[12].nic.ids 	neighbour0IntentionalPacketDropping 	0
scalar IDSforWSN.node[12].nic.ids 	neigh9PackRec 	70
scalar IDSforWSN.node[12].nic.ids 	neigh9PackFwd 	62
scalar IDSforWSN.node[12].nic.ids 	neigh9DropLoc 	1
scalar IDSforWSN.node[12].nic.ids 	neigh9DropGlob 	0
scalar IDSforWSN.node[12].nic.ids 	neighbour9IntentionalPacketDropping 	0
scalar IDSforWSN.node[12].nic.ids 	neigh19PackRec 	18
scalar IDSforWSN.node[12].nic.ids 	neigh19PackFwd 	0
scalar IDSforWSN.node[12].nic.ids 	neigh19DropLoc 	1
scalar IDSforWSN.node[12].nic.ids 	neigh19DropGlob 	1
scalar IDSforWSN.node[12].nic.ids 	neighbour19IntentionalPacketDropping 	0
scalar IDSforWSN.node[12].nic.ids 	neigh28PackRec 	4
scalar IDSforWSN.node[12].nic.ids 	neigh28PackFwd 	1
scalar IDSforWSN.node[12].nic.ids 	neigh28DropLoc 	1
scalar IDSforWSN.node[12].nic.ids 	neigh28DropGlob 	0
scalar IDSforWSN.node[12].nic.ids 	neighbour28IntentionalPacketDropping 	0
scalar IDSforWSN.node[12].nic.ids 	neigh34PackRec 	5
scalar IDSforWSN.node[12].nic.ids 	neigh34PackFwd 	0
scalar IDSforWSN.node[12].nic.ids 	neigh34DropLoc 	1
scalar IDSforWSN.node[12].nic.ids 	neigh34DropGlob 	0
scalar IDSforWSN.node[12].nic.ids 	neighbour34IntentionalPacketDropping 	0
scalar IDSforWSN.node[12].nic.ids 	neigh46PackRec 	45
scalar IDSforWSN.node[12].nic.ids 	neigh46PackFwd 	37
scalar IDSforWSN.node[12].nic.ids 	neigh46DropLoc 	1
scalar IDSforWSN.node[12].nic.ids 	neigh46DropGlob 	0
scalar IDSforWSN.node[12].nic.ids 	neighbour46IntentionalPacketDropping 	0
scalar IDSforWSN.node[12].nic.ids 	neigh49PackRec 	14
scalar IDSforWSN.node[12].nic.ids 	neigh49PackFwd 	11
scalar IDSforWSN.node[12].nic.ids 	neigh49DropLoc 	1
scalar IDSforWSN.node[12].nic.ids 	neigh49DropGlob 	0
scalar IDSforWSN.node[12].nic.ids 	neighbour49IntentionalPacketDropping 	0
scalar IDSforWSN.node[12].nic.ids 	neigh52PackRec 	8
scalar IDSforWSN.node[12].nic.ids 	neigh52PackFwd 	6
scalar IDSforWSN.node[12].nic.ids 	neigh52DropLoc 	1
scalar IDSforWSN.node[12].nic.ids 	neigh52DropGlob 	0
scalar IDSforWSN.node[12].nic.ids 	neighbour52IntentionalPacketDropping 	0
scalar IDSforWSN.node[12].nic.ids 	neigh59PackRec 	119
scalar IDSforWSN.node[12].nic.ids 	neigh59PackFwd 	72
scalar IDSforWSN.node[12].nic.ids 	neigh59DropLoc 	1
scalar IDSforWSN.node[12].nic.ids 	neigh59DropGlob 	0
scalar IDSforWSN.node[12].nic.ids 	neighbour59IntentionalPacketDropping 	0
scalar IDSforWSN.node[12].nic.ids 	neigh80PackRec 	1
scalar IDSforWSN.node[12].nic.ids 	neigh80PackFwd 	0
scalar IDSforWSN.node[12].nic.ids 	neigh80DropLoc 	1
scalar IDSforWSN.node[12].nic.ids 	neigh80DropGlob 	0
scalar IDSforWSN.node[12].nic.ids 	neighbour80IntentionalPacketDropping 	0
scalar IDSforWSN.node[12].nic.ids 	neigh93PackRec 	25
scalar IDSforWSN.node[12].nic.ids 	neigh93PackFwd 	16
scalar IDSforWSN.node[12].nic.ids 	neigh93DropLoc 	1
scalar IDSforWSN.node[12].nic.ids 	neigh93DropGlob 	0
scalar IDSforWSN.node[12].nic.ids 	neighbour93IntentionalPacketDropping 	0
scalar IDSforWSN.node[12].nic.ids 	neigh116PackRec 	1603
scalar IDSforWSN.node[12].nic.ids 	neigh116PackFwd 	1011
scalar IDSforWSN.node[12].nic.ids 	neigh116DropLoc 	1
scalar IDSforWSN.node[12].nic.ids 	neigh116DropGlob 	1
scalar IDSforWSN.node[12].nic.ids 	neighbour116IntentionalPacketDropping 	0
scalar IDSforWSN.node[12].nic.ids 	neigh122PackRec 	298
scalar IDSforWSN.node[12].nic.ids 	neigh122PackFwd 	252
scalar IDSforWSN.node[12].nic.ids 	neigh122DropLoc 	1
scalar IDSforWSN.node[12].nic.ids 	neigh122DropGlob 	1
scalar IDSforWSN.node[12].nic.ids 	neighbour122IntentionalPacketDropping 	0
scalar IDSforWSN.node[12].nic.ids 	neigh136PackRec 	59
scalar IDSforWSN.node[12].nic.ids 	neigh136PackFwd 	59
scalar IDSforWSN.node[12].nic.ids 	neigh136DropLoc 	0
scalar IDSforWSN.node[12].nic.ids 	neigh136DropGlob 	0
scalar IDSforWSN.node[12].nic.ids 	neighbour136IntentionalPacketDropping 	0
scalar IDSforWSN.node[12].nic.ids 	neigh163PackRec 	30
scalar IDSforWSN.node[12].nic.ids 	neigh163PackFwd 	8
scalar IDSforWSN.node[12].nic.ids 	neigh163DropLoc 	1
scalar IDSforWSN.node[12].nic.ids 	neigh163DropGlob 	0
scalar IDSforWSN.node[12].nic.ids 	neighbour163IntentionalPacketDropping 	0
scalar IDSforWSN.node[12].nic.ids 	neigh182PackRec 	189
scalar IDSforWSN.node[12].nic.ids 	neigh182PackFwd 	161
scalar IDSforWSN.node[12].nic.ids 	neigh182DropLoc 	1
scalar IDSforWSN.node[12].nic.ids 	neigh182DropGlob 	0
scalar IDSforWSN.node[12].nic.ids 	neighbour182IntentionalPacketDropping 	0
scalar IDSforWSN.node[12].nic.ids 	neigh186PackRec 	368
scalar IDSforWSN.node[12].nic.ids 	neigh186PackFwd 	365
scalar IDSforWSN.node[12].nic.ids 	neigh186DropLoc 	1
scalar IDSforWSN.node[12].nic.ids 	neigh186DropGlob 	0
scalar IDSforWSN.node[12].nic.ids 	neighbour186IntentionalPacketDropping 	0
scalar IDSforWSN.node[12].nic.ids 	neigh197PackRec 	20
scalar IDSforWSN.node[12].nic.ids 	neigh197PackFwd 	3
scalar IDSforWSN.node[12].nic.ids 	neigh197DropLoc 	1
scalar IDSforWSN.node[12].nic.ids 	neigh197DropGlob 	1
scalar IDSforWSN.node[12].nic.ids 	neighbour197IntentionalPacketDropping 	0
scalar IDSforWSN.node[12].nic.ids 	neigh206PackRec 	2391
scalar IDSforWSN.node[12].nic.ids 	neigh206PackFwd 	657
scalar IDSforWSN.node[12].nic.ids 	neigh206DropLoc 	1
scalar IDSforWSN.node[12].nic.ids 	neigh206DropGlob 	1
scalar IDSforWSN.node[12].nic.ids 	neighbour206IntentionalPacketDropping 	0.5
scalar IDSforWSN.node[12].nic.ids 	neigh224PackRec 	25
scalar IDSforWSN.node[12].nic.ids 	neigh224PackFwd 	7
scalar IDSforWSN.node[12].nic.ids 	neigh224DropLoc 	1
scalar IDSforWSN.node[12].nic.ids 	neigh224DropGlob 	0
scalar IDSforWSN.node[12].nic.ids 	neighbour224IntentionalPacketDropping 	0
scalar IDSforWSN.node[12].nic.ids 	neigh236PackRec 	218
scalar IDSforWSN.node[12].nic.ids 	neigh236PackFwd 	160
scalar IDSforWSN.node[12].nic.ids 	neigh236DropLoc 	1
scalar IDSforWSN.node[12].nic.ids 	neigh236DropGlob 	1
scalar IDSforWSN.node[12].nic.ids 	neighbour236IntentionalPacketDropping 	0
scalar IDSforWSN.node[12].nic.ids 	neigh239PackRec 	1026
scalar IDSforWSN.node[12].nic.ids 	neigh239PackFwd 	1015
scalar IDSforWSN.node[12].nic.ids 	neigh239DropLoc 	1
scalar IDSforWSN.node[12].nic.ids 	neigh239DropGlob 	0
scalar IDSforWSN.node[12].nic.ids 	neighbour239IntentionalPacketDropping 	0
scalar IDSforWSN.node[12].nic.ids 	neigh241PackRec 	919
scalar IDSforWSN.node[12].nic.ids 	neigh241PackFwd 	795
scalar IDSforWSN.node[12].nic.ids 	neigh241DropLoc 	1
scalar IDSforWSN.node[12].nic.ids 	neigh241DropGlob 	1
scalar IDSforWSN.node[12].nic.ids 	neighbour241IntentionalPacketDropping 	0
scalar IDSforWSN.node[12].nic.ids 	neigh246PackRec 	152
scalar IDSforWSN.node[12].nic.ids 	neigh246PackFwd 	136
scalar IDSforWSN.node[12].nic.ids 	neigh246DropLoc 	1
scalar IDSforWSN.node[12].nic.ids 	neigh246DropGlob 	0
scalar IDSforWSN.node[12].nic.ids 	neighbour246IntentionalPacketDropping 	0
scalar IDSforWSN.node[12].nic.ids 	Neigbors_forwardersMap 	24
scalar IDSforWSN.node[12].nic.ids 	Neighbors_neighborsSet 	50
scalar IDSforWSN.node[12].nic.ids 	data_packets_intercepted 	10004
scalar IDSforWSN.node[12].nic.ids 	data_packets_me_to_somebody 	60
scalar IDSforWSN.node[12].nic.ids 	data_packets_somebody_to_me 	0
scalar IDSforWSN.node[12].nic.ids 	data_packets_somebody_to_somebody 	9944
scalar IDSforWSN.node[13].nic.ids 	neigh3PackRec 	6
scalar IDSforWSN.node[13].nic.ids 	neigh3PackFwd 	6
scalar IDSforWSN.node[13].nic.ids 	neigh3DropLoc 	0
scalar IDSforWSN.node[13].nic.ids 	neigh3DropGlob 	0
scalar IDSforWSN.node[13].nic.ids 	neighbour3IntentionalPacketDropping 	0
scalar IDSforWSN.node[13].nic.ids 	neigh6PackRec 	178
scalar IDSforWSN.node[13].nic.ids 	neigh6PackFwd 	176
scalar IDSforWSN.node[13].nic.ids 	neigh6DropLoc 	1
scalar IDSforWSN.node[13].nic.ids 	neigh6DropGlob 	0
scalar IDSforWSN.node[13].nic.ids 	neighbour6IntentionalPacketDropping 	0
scalar IDSforWSN.node[13].nic.ids 	neigh9PackRec 	99
scalar IDSforWSN.node[13].nic.ids 	neigh9PackFwd 	6
scalar IDSforWSN.node[13].nic.ids 	neigh9DropLoc 	1
scalar IDSforWSN.node[13].nic.ids 	neigh9DropGlob 	0
scalar IDSforWSN.node[13].nic.ids 	neighbour9IntentionalPacketDropping 	0
scalar IDSforWSN.node[13].nic.ids 	neigh15PackRec 	57
scalar IDSforWSN.node[13].nic.ids 	neigh15PackFwd 	11
scalar IDSforWSN.node[13].nic.ids 	neigh15DropLoc 	1
scalar IDSforWSN.node[13].nic.ids 	neigh15DropGlob 	0
scalar IDSforWSN.node[13].nic.ids 	neighbour15IntentionalPacketDropping 	0
scalar IDSforWSN.node[13].nic.ids 	neigh28PackRec 	70
scalar IDSforWSN.node[13].nic.ids 	neigh28PackFwd 	2
scalar IDSforWSN.node[13].nic.ids 	neigh28DropLoc 	1
scalar IDSforWSN.node[13].nic.ids 	neigh28DropGlob 	0
scalar IDSforWSN.node[13].nic.ids 	neighbour28IntentionalPacketDropping 	0
scalar IDSforWSN.node[13].nic.ids 	neigh36PackRec 	5
scalar IDSforWSN.node[13].nic.ids 	neigh36PackFwd 	0
scalar IDSforWSN.node[13].nic.ids 	neigh36DropLoc 	1
scalar IDSforWSN.node[13].nic.ids 	neigh36DropGlob 	0
scalar IDSforWSN.node[13].nic.ids 	neighbour36IntentionalPacketDropping 	0
scalar IDSforWSN.node[13].nic.ids 	neigh39PackRec 	38
scalar IDSforWSN.node[13].nic.ids 	neigh39PackFwd 	38
scalar IDSforWSN.node[13].nic.ids 	neigh39DropLoc 	0
scalar IDSforWSN.node[13].nic.ids 	neigh39DropGlob 	0
scalar IDSforWSN.node[13].nic.ids 	neighbour39IntentionalPacketDropping 	0
[...]
scalar IDSforWSN.node[248].nic.ids 	neigh54PackRec 	44
scalar IDSforWSN.node[248].nic.ids 	neigh54PackFwd 	0
scalar IDSforWSN.node[248].nic.ids 	neigh54DropLoc 	1
scalar IDSforWSN.node[248].nic.ids 	neigh54DropGlob 	1
scalar IDSforWSN.node[248].nic.ids 	neighbour54IntentionalPacketDropping 	0
scalar IDSforWSN.node[248].nic.ids 	neigh59PackRec 	2
scalar IDSforWSN.node[248].nic.ids 	neigh59PackFwd 	0
scalar IDSforWSN.node[248].nic.ids 	neigh59DropLoc 	1
scalar IDSforWSN.node[248].nic.ids 	neigh59DropGlob 	0
scalar IDSforWSN.node[248].nic.ids 	neighbour59IntentionalPacketDropping 	0
scalar IDSforWSN.node[248].nic.ids 	neigh76PackRec 	50
scalar IDSforWSN.node[248].nic.ids 	neigh76PackFwd 	11
scalar IDSforWSN.node[248].nic.ids 	neigh76DropLoc 	1
scalar IDSforWSN.node[248].nic.ids 	neigh76DropGlob 	0
scalar IDSforWSN.node[248].nic.ids 	neighbour76IntentionalPacketDropping 	0
scalar IDSforWSN.node[248].nic.ids 	neigh80PackRec 	58
scalar IDSforWSN.node[248].nic.ids 	neigh80PackFwd 	39
scalar IDSforWSN.node[248].nic.ids 	neigh80DropLoc 	1
scalar IDSforWSN.node[248].nic.ids 	neigh80DropGlob 	0
scalar IDSforWSN.node[248].nic.ids 	neighbour80IntentionalPacketDropping 	0
scalar IDSforWSN.node[248].nic.ids 	neigh82PackRec 	8
scalar IDSforWSN.node[248].nic.ids 	neigh82PackFwd 	0
scalar IDSforWSN.node[248].nic.ids 	neigh82DropLoc 	1
scalar IDSforWSN.node[248].nic.ids 	neigh82DropGlob 	0
scalar IDSforWSN.node[248].nic.ids 	neighbour82IntentionalPacketDropping 	0
scalar IDSforWSN.node[248].nic.ids 	neigh90PackRec 	171
scalar IDSforWSN.node[248].nic.ids 	neigh90PackFwd 	23
scalar IDSforWSN.node[248].nic.ids 	neigh90DropLoc 	1
scalar IDSforWSN.node[248].nic.ids 	neigh90DropGlob 	1
scalar IDSforWSN.node[248].nic.ids 	neighbour90IntentionalPacketDropping 	0
scalar IDSforWSN.node[248].nic.ids 	neigh105PackRec 	7
scalar IDSforWSN.node[248].nic.ids 	neigh105PackFwd 	0
scalar IDSforWSN.node[248].nic.ids 	neigh105DropLoc 	1
scalar IDSforWSN.node[248].nic.ids 	neigh105DropGlob 	0
scalar IDSforWSN.node[248].nic.ids 	neighbour105IntentionalPacketDropping 	0
scalar IDSforWSN.node[248].nic.ids 	neigh108PackRec 	237
scalar IDSforWSN.node[248].nic.ids 	neigh108PackFwd 	24
scalar IDSforWSN.node[248].nic.ids 	neigh108DropLoc 	1
scalar IDSforWSN.node[248].nic.ids 	neigh108DropGlob 	1
scalar IDSforWSN.node[248].nic.ids 	neighbour108IntentionalPacketDropping 	0
scalar IDSforWSN.node[248].nic.ids 	neigh117PackRec 	1
scalar IDSforWSN.node[248].nic.ids 	neigh117PackFwd 	0
scalar IDSforWSN.node[248].nic.ids 	neigh117DropLoc 	1
scalar IDSforWSN.node[248].nic.ids 	neigh117DropGlob 	0
scalar IDSforWSN.node[248].nic.ids 	neighbour117IntentionalPacketDropping 	0
scalar IDSforWSN.node[248].nic.ids 	neigh122PackRec 	1135
scalar IDSforWSN.node[248].nic.ids 	neigh122PackFwd 	875
scalar IDSforWSN.node[248].nic.ids 	neigh122DropLoc 	1
scalar IDSforWSN.node[248].nic.ids 	neigh122DropGlob 	1
scalar IDSforWSN.node[248].nic.ids 	neighbour122IntentionalPacketDropping 	0
scalar IDSforWSN.node[248].nic.ids 	neigh124PackRec 	21
scalar IDSforWSN.node[248].nic.ids 	neigh124PackFwd 	12
scalar IDSforWSN.node[248].nic.ids 	neigh124DropLoc 	1
scalar IDSforWSN.node[248].nic.ids 	neigh124DropGlob 	0
scalar IDSforWSN.node[248].nic.ids 	neighbour124IntentionalPacketDropping 	0
scalar IDSforWSN.node[248].nic.ids 	neigh155PackRec 	2
scalar IDSforWSN.node[248].nic.ids 	neigh155PackFwd 	0
scalar IDSforWSN.node[248].nic.ids 	neigh155DropLoc 	1
scalar IDSforWSN.node[248].nic.ids 	neigh155DropGlob 	0
scalar IDSforWSN.node[248].nic.ids 	neighbour155IntentionalPacketDropping 	0
scalar IDSforWSN.node[248].nic.ids 	neigh163PackRec 	961
scalar IDSforWSN.node[248].nic.ids 	neigh163PackFwd 	955
scalar IDSforWSN.node[248].nic.ids 	neigh163DropLoc 	1
scalar IDSforWSN.node[248].nic.ids 	neigh163DropGlob 	0
scalar IDSforWSN.node[248].nic.ids 	neighbour163IntentionalPacketDropping 	0
scalar IDSforWSN.node[248].nic.ids 	neigh165PackRec 	342
scalar IDSforWSN.node[248].nic.ids 	neigh165PackFwd 	326
scalar IDSforWSN.node[248].nic.ids 	neigh165DropLoc 	1
scalar IDSforWSN.node[248].nic.ids 	neigh165DropGlob 	0
scalar IDSforWSN.node[248].nic.ids 	neighbour165IntentionalPacketDropping 	0
scalar IDSforWSN.node[248].nic.ids 	neigh176PackRec 	22
scalar IDSforWSN.node[248].nic.ids 	neigh176PackFwd 	1
scalar IDSforWSN.node[248].nic.ids 	neigh176DropLoc 	1
scalar IDSforWSN.node[248].nic.ids 	neigh176DropGlob 	0
scalar IDSforWSN.node[248].nic.ids 	neighbour176IntentionalPacketDropping 	0.5
scalar IDSforWSN.node[248].nic.ids 	neigh185PackRec 	3
scalar IDSforWSN.node[248].nic.ids 	neigh185PackFwd 	0
scalar IDSforWSN.node[248].nic.ids 	neigh185DropLoc 	1
scalar IDSforWSN.node[248].nic.ids 	neigh185DropGlob 	0
scalar IDSforWSN.node[248].nic.ids 	neighbour185IntentionalPacketDropping 	0
scalar IDSforWSN.node[248].nic.ids 	neigh186PackRec 	266
scalar IDSforWSN.node[248].nic.ids 	neigh186PackFwd 	174
scalar IDSforWSN.node[248].nic.ids 	neigh186DropLoc 	1
scalar IDSforWSN.node[248].nic.ids 	neigh186DropGlob 	1
scalar IDSforWSN.node[248].nic.ids 	neighbour186IntentionalPacketDropping 	0
scalar IDSforWSN.node[248].nic.ids 	neigh206PackRec 	1543
scalar IDSforWSN.node[248].nic.ids 	neigh206PackFwd 	49
scalar IDSforWSN.node[248].nic.ids 	neigh206DropLoc 	1
scalar IDSforWSN.node[248].nic.ids 	neigh206DropGlob 	1
scalar IDSforWSN.node[248].nic.ids 	neighbour206IntentionalPacketDropping 	0.5
scalar IDSforWSN.node[248].nic.ids 	neigh212PackRec 	5
scalar IDSforWSN.node[248].nic.ids 	neigh212PackFwd 	1
scalar IDSforWSN.node[248].nic.ids 	neigh212DropLoc 	1
scalar IDSforWSN.node[248].nic.ids 	neigh212DropGlob 	0
scalar IDSforWSN.node[248].nic.ids 	neighbour212IntentionalPacketDropping 	0
scalar IDSforWSN.node[248].nic.ids 	neigh239PackRec 	436
scalar IDSforWSN.node[248].nic.ids 	neigh239PackFwd 	180
scalar IDSforWSN.node[248].nic.ids 	neigh239DropLoc 	1
scalar IDSforWSN.node[248].nic.ids 	neigh239DropGlob 	1
scalar IDSforWSN.node[248].nic.ids 	neighbour239IntentionalPacketDropping 	0
scalar IDSforWSN.node[248].nic.ids 	neigh246PackRec 	297
scalar IDSforWSN.node[248].nic.ids 	neigh246PackFwd 	164
scalar IDSforWSN.node[248].nic.ids 	neigh246DropLoc 	1
scalar IDSforWSN.node[248].nic.ids 	neigh246DropGlob 	0
scalar IDSforWSN.node[248].nic.ids 	neighbour246IntentionalPacketDropping 	0
scalar IDSforWSN.node[248].nic.ids 	Neigbors_forwardersMap 	25
scalar IDSforWSN.node[248].nic.ids 	Neighbors_neighborsSet 	54
scalar IDSforWSN.node[248].nic.ids 	data_packets_intercepted 	6208
scalar IDSforWSN.node[248].nic.ids 	data_packets_me_to_somebody 	60
scalar IDSforWSN.node[248].nic.ids 	data_packets_somebody_to_me 	0
scalar IDSforWSN.node[248].nic.ids 	data_packets_somebody_to_somebody 	6148
scalar IDSforWSN.node[249].nic.ids 	neigh22PackRec 	456
scalar IDSforWSN.node[249].nic.ids 	neigh22PackFwd 	251
scalar IDSforWSN.node[249].nic.ids 	neigh22DropLoc 	1
scalar IDSforWSN.node[249].nic.ids 	neigh22DropGlob 	1
scalar IDSforWSN.node[249].nic.ids 	neighbour22IntentionalPacketDropping 	0
scalar IDSforWSN.node[249].nic.ids 	neigh29PackRec 	908
scalar IDSforWSN.node[249].nic.ids 	neigh29PackFwd 	601
scalar IDSforWSN.node[249].nic.ids 	neigh29DropLoc 	1
scalar IDSforWSN.node[249].nic.ids 	neigh29DropGlob 	1
scalar IDSforWSN.node[249].nic.ids 	neighbour29IntentionalPacketDropping 	0
scalar IDSforWSN.node[249].nic.ids 	neigh31PackRec 	429
scalar IDSforWSN.node[249].nic.ids 	neigh31PackFwd 	427
scalar IDSforWSN.node[249].nic.ids 	neigh31DropLoc 	1
scalar IDSforWSN.node[249].nic.ids 	neigh31DropGlob 	0
scalar IDSforWSN.node[249].nic.ids 	neighbour31IntentionalPacketDropping 	0
scalar IDSforWSN.node[249].nic.ids 	neigh33PackRec 	192
scalar IDSforWSN.node[249].nic.ids 	neigh33PackFwd 	123
scalar IDSforWSN.node[249].nic.ids 	neigh33DropLoc 	1
scalar IDSforWSN.node[249].nic.ids 	neigh33DropGlob 	0
scalar IDSforWSN.node[249].nic.ids 	neighbour33IntentionalPacketDropping 	0
scalar IDSforWSN.node[249].nic.ids 	neigh44PackRec 	24
scalar IDSforWSN.node[249].nic.ids 	neigh44PackFwd 	18
scalar IDSforWSN.node[249].nic.ids 	neigh44DropLoc 	1
scalar IDSforWSN.node[249].nic.ids 	neigh44DropGlob 	0
scalar IDSforWSN.node[249].nic.ids 	neighbour44IntentionalPacketDropping 	0
scalar IDSforWSN.node[249].nic.ids 	neigh45PackRec 	2
scalar IDSforWSN.node[249].nic.ids 	neigh45PackFwd 	1
scalar IDSforWSN.node[249].nic.ids 	neigh45DropLoc 	1
scalar IDSforWSN.node[249].nic.ids 	neigh45DropGlob 	0
scalar IDSforWSN.node[249].nic.ids 	neighbour45IntentionalPacketDropping 	0
scalar IDSforWSN.node[249].nic.ids 	neigh62PackRec 	373
scalar IDSforWSN.node[249].nic.ids 	neigh62PackFwd 	354
scalar IDSforWSN.node[249].nic.ids 	neigh62DropLoc 	1
scalar IDSforWSN.node[249].nic.ids 	neigh62DropGlob 	0
scalar IDSforWSN.node[249].nic.ids 	neighbour62IntentionalPacketDropping 	0
scalar IDSforWSN.node[249].nic.ids 	neigh63PackRec 	6
scalar IDSforWSN.node[249].nic.ids 	neigh63PackFwd 	0
scalar IDSforWSN.node[249].nic.ids 	neigh63DropLoc 	1
scalar IDSforWSN.node[249].nic.ids 	neigh63DropGlob 	0
scalar IDSforWSN.node[249].nic.ids 	neighbour63IntentionalPacketDropping 	0
scalar IDSforWSN.node[249].nic.ids 	neigh70PackRec 	663
scalar IDSforWSN.node[249].nic.ids 	neigh70PackFwd 	38
scalar IDSforWSN.node[249].nic.ids 	neigh70DropLoc 	1
scalar IDSforWSN.node[249].nic.ids 	neigh70DropGlob 	1
scalar IDSforWSN.node[249].nic.ids 	neighbour70IntentionalPacketDropping 	0
scalar IDSforWSN.node[249].nic.ids 	neigh85PackRec 	60
scalar IDSforWSN.node[249].nic.ids 	neigh85PackFwd 	59
scalar IDSforWSN.node[249].nic.ids 	neigh85DropLoc 	1
scalar IDSforWSN.node[249].nic.ids 	neigh85DropGlob 	0
scalar IDSforWSN.node[249].nic.ids 	neighbour85IntentionalPacketDropping 	0
scalar IDSforWSN.node[249].nic.ids 	neigh99PackRec 	47
scalar IDSforWSN.node[249].nic.ids 	neigh99PackFwd 	24
scalar IDSforWSN.node[249].nic.ids 	neigh99DropLoc 	1
scalar IDSforWSN.node[249].nic.ids 	neigh99DropGlob 	0
scalar IDSforWSN.node[249].nic.ids 	neighbour99IntentionalPacketDropping 	0
scalar IDSforWSN.node[249].nic.ids 	neigh107PackRec 	73
scalar IDSforWSN.node[249].nic.ids 	neigh107PackFwd 	51
scalar IDSforWSN.node[249].nic.ids 	neigh107DropLoc 	1
scalar IDSforWSN.node[249].nic.ids 	neigh107DropGlob 	0
scalar IDSforWSN.node[249].nic.ids 	neighbour107IntentionalPacketDropping 	0
scalar IDSforWSN.node[249].nic.ids 	neigh113PackRec 	491
scalar IDSforWSN.node[249].nic.ids 	neigh113PackFwd 	9
scalar IDSforWSN.node[249].nic.ids 	neigh113DropLoc 	1
scalar IDSforWSN.node[249].nic.ids 	neigh113DropGlob 	1
scalar IDSforWSN.node[249].nic.ids 	neighbour113IntentionalPacketDropping 	0
scalar IDSforWSN.node[249].nic.ids 	neigh119PackRec 	91
scalar IDSforWSN.node[249].nic.ids 	neigh119PackFwd 	80
scalar IDSforWSN.node[249].nic.ids 	neigh119DropLoc 	1
scalar IDSforWSN.node[249].nic.ids 	neigh119DropGlob 	1
scalar IDSforWSN.node[249].nic.ids 	neighbour119IntentionalPacketDropping 	0
scalar IDSforWSN.node[249].nic.ids 	neigh149PackRec 	35
scalar IDSforWSN.node[249].nic.ids 	neigh149PackFwd 	34
scalar IDSforWSN.node[249].nic.ids 	neigh149DropLoc 	1
scalar IDSforWSN.node[249].nic.ids 	neigh149DropGlob 	0
scalar IDSforWSN.node[249].nic.ids 	neighbour149IntentionalPacketDropping 	0
scalar IDSforWSN.node[249].nic.ids 	neigh164PackRec 	2
scalar IDSforWSN.node[249].nic.ids 	neigh164PackFwd 	1
scalar IDSforWSN.node[249].nic.ids 	neigh164DropLoc 	1
scalar IDSforWSN.node[249].nic.ids 	neigh164DropGlob 	0
scalar IDSforWSN.node[249].nic.ids 	neighbour164IntentionalPacketDropping 	0
scalar IDSforWSN.node[249].nic.ids 	neigh181PackRec 	632
scalar IDSforWSN.node[249].nic.ids 	neigh181PackFwd 	623
scalar IDSforWSN.node[249].nic.ids 	neigh181DropLoc 	1
scalar IDSforWSN.node[249].nic.ids 	neigh181DropGlob 	1
scalar IDSforWSN.node[249].nic.ids 	neighbour181IntentionalPacketDropping 	0
scalar IDSforWSN.node[249].nic.ids 	neigh199PackRec 	53
scalar IDSforWSN.node[249].nic.ids 	neigh199PackFwd 	53
scalar IDSforWSN.node[249].nic.ids 	neigh199DropLoc 	0
scalar IDSforWSN.node[249].nic.ids 	neigh199DropGlob 	0
scalar IDSforWSN.node[249].nic.ids 	neighbour199IntentionalPacketDropping 	0
scalar IDSforWSN.node[249].nic.ids 	neigh211PackRec 	253
scalar IDSforWSN.node[249].nic.ids 	neigh211PackFwd 	67
scalar IDSforWSN.node[249].nic.ids 	neigh211DropLoc 	1
scalar IDSforWSN.node[249].nic.ids 	neigh211DropGlob 	1
scalar IDSforWSN.node[249].nic.ids 	neighbour211IntentionalPacketDropping 	0
scalar IDSforWSN.node[249].nic.ids 	Neigbors_forwardersMap 	19
scalar IDSforWSN.node[249].nic.ids 	Neighbors_neighborsSet 	42
scalar IDSforWSN.node[249].nic.ids 	data_packets_intercepted 	4928
scalar IDSforWSN.node[249].nic.ids 	data_packets_me_to_somebody 	60
scalar IDSforWSN.node[249].nic.ids 	data_packets_somebody_to_me 	0
scalar IDSforWSN.node[249].nic.ids 	data_packets_somebody_to_somebody 	4868
scalar IDSforWSN.node[250].nic.ids 	neigh0PackRec 	18
scalar IDSforWSN.node[250].nic.ids 	neigh0PackFwd 	2
scalar IDSforWSN.node[250].nic.ids 	neigh0DropLoc 	1
scalar IDSforWSN.node[250].nic.ids 	neigh0DropGlob 	0
scalar IDSforWSN.node[250].nic.ids 	neighbour0IntentionalPacketDropping 	0
scalar IDSforWSN.node[250].nic.ids 	neigh8PackRec 	1859
scalar IDSforWSN.node[250].nic.ids 	neigh8PackFwd 	1704
scalar IDSforWSN.node[250].nic.ids 	neigh8DropLoc 	1
scalar IDSforWSN.node[250].nic.ids 	neigh8DropGlob 	1
scalar IDSforWSN.node[250].nic.ids 	neighbour8IntentionalPacketDropping 	0
scalar IDSforWSN.node[250].nic.ids 	neigh19PackRec 	744
scalar IDSforWSN.node[250].nic.ids 	neigh19PackFwd 	707
scalar IDSforWSN.node[250].nic.ids 	neigh19DropLoc 	1
scalar IDSforWSN.node[250].nic.ids 	neigh19DropGlob 	1
scalar IDSforWSN.node[250].nic.ids 	neighbour19IntentionalPacketDropping 	0
scalar IDSforWSN.node[250].nic.ids 	neigh27PackRec 	53
scalar IDSforWSN.node[250].nic.ids 	neigh27PackFwd 	29
scalar IDSforWSN.node[250].nic.ids 	neigh27DropLoc 	1
scalar IDSforWSN.node[250].nic.ids 	neigh27DropGlob 	1
scalar IDSforWSN.node[250].nic.ids 	neighbour27IntentionalPacketDropping 	0
scalar IDSforWSN.node[250].nic.ids 	neigh29PackRec 	1
scalar IDSforWSN.node[250].nic.ids 	neigh29PackFwd 	0
scalar IDSforWSN.node[250].nic.ids 	neigh29DropLoc 	1
scalar IDSforWSN.node[250].nic.ids 	neigh29DropGlob 	0
scalar IDSforWSN.node[250].nic.ids 	neighbour29IntentionalPacketDropping 	0
scalar IDSforWSN.node[250].nic.ids 	neigh49PackRec 	2
scalar IDSforWSN.node[250].nic.ids 	neigh49PackFwd 	0
scalar IDSforWSN.node[250].nic.ids 	neigh49DropLoc 	1
scalar IDSforWSN.node[250].nic.ids 	neigh49DropGlob 	0
scalar IDSforWSN.node[250].nic.ids 	neighbour49IntentionalPacketDropping 	0
scalar IDSforWSN.node[250].nic.ids 	neigh54PackRec 	541
scalar IDSforWSN.node[250].nic.ids 	neigh54PackFwd 	534
scalar IDSforWSN.node[250].nic.ids 	neigh54DropLoc 	1
scalar IDSforWSN.node[250].nic.ids 	neigh54DropGlob 	1
scalar IDSforWSN.node[250].nic.ids 	neighbour54IntentionalPacketDropping 	0
scalar IDSforWSN.node[250].nic.ids 	neigh59PackRec 	24
scalar IDSforWSN.node[250].nic.ids 	neigh59PackFwd 	22
scalar IDSforWSN.node[250].nic.ids 	neigh59DropLoc 	1
scalar IDSforWSN.node[250].nic.ids 	neigh59DropGlob 	0
scalar IDSforWSN.node[250].nic.ids 	neighbour59IntentionalPacketDropping 	0
scalar IDSforWSN.node[250].nic.ids 	neigh70PackRec 	49
scalar IDSforWSN.node[250].nic.ids 	neigh70PackFwd 	32
scalar IDSforWSN.node[250].nic.ids 	neigh70DropLoc 	1
scalar IDSforWSN.node[250].nic.ids 	neigh70DropGlob 	1
scalar IDSforWSN.node[250].nic.ids 	neighbour70IntentionalPacketDropping 	0
scalar IDSforWSN.node[250].nic.ids 	neigh82PackRec 	7
scalar IDSforWSN.node[250].nic.ids 	neigh82PackFwd 	0
scalar IDSforWSN.node[250].nic.ids 	neigh82DropLoc 	1
scalar IDSforWSN.node[250].nic.ids 	neigh82DropGlob 	0
scalar IDSforWSN.node[250].nic.ids 	neighbour82IntentionalPacketDropping 	0
scalar IDSforWSN.node[250].nic.ids 	neigh87PackRec 	27
scalar IDSforWSN.node[250].nic.ids 	neigh87PackFwd 	10
scalar IDSforWSN.node[250].nic.ids 	neigh87DropLoc 	1
scalar IDSforWSN.node[250].nic.ids 	neigh87DropGlob 	0
scalar IDSforWSN.node[250].nic.ids 	neighbour87IntentionalPacketDropping 	0
scalar IDSforWSN.node[250].nic.ids 	neigh90PackRec 	6
scalar IDSforWSN.node[250].nic.ids 	neigh90PackFwd 	2
scalar IDSforWSN.node[250].nic.ids 	neigh90DropLoc 	1
scalar IDSforWSN.node[250].nic.ids 	neigh90DropGlob 	0
scalar IDSforWSN.node[250].nic.ids 	neighbour90IntentionalPacketDropping 	0
scalar IDSforWSN.node[250].nic.ids 	neigh93PackRec 	19
scalar IDSforWSN.node[250].nic.ids 	neigh93PackFwd 	13
scalar IDSforWSN.node[250].nic.ids 	neigh93DropLoc 	1
scalar IDSforWSN.node[250].nic.ids 	neigh93DropGlob 	0
scalar IDSforWSN.node[250].nic.ids 	neighbour93IntentionalPacketDropping 	0
scalar IDSforWSN.node[250].nic.ids 	neigh99PackRec 	1
scalar IDSforWSN.node[250].nic.ids 	neigh99PackFwd 	0
scalar IDSforWSN.node[250].nic.ids 	neigh99DropLoc 	1
scalar IDSforWSN.node[250].nic.ids 	neigh99DropGlob 	0
scalar IDSforWSN.node[250].nic.ids 	neighbour99IntentionalPacketDropping 	0
scalar IDSforWSN.node[250].nic.ids 	neigh108PackRec 	365
scalar IDSforWSN.node[250].nic.ids 	neigh108PackFwd 	304
scalar IDSforWSN.node[250].nic.ids 	neigh108DropLoc 	1
scalar IDSforWSN.node[250].nic.ids 	neigh108DropGlob 	1
scalar IDSforWSN.node[250].nic.ids 	neighbour108IntentionalPacketDropping 	0
scalar IDSforWSN.node[250].nic.ids 	neigh113PackRec 	157
scalar IDSforWSN.node[250].nic.ids 	neigh113PackFwd 	137
scalar IDSforWSN.node[250].nic.ids 	neigh113DropLoc 	1
scalar IDSforWSN.node[250].nic.ids 	neigh113DropGlob 	0
scalar IDSforWSN.node[250].nic.ids 	neighbour113IntentionalPacketDropping 	0
scalar IDSforWSN.node[250].nic.ids 	neigh116PackRec 	818
scalar IDSforWSN.node[250].nic.ids 	neigh116PackFwd 	754
scalar IDSforWSN.node[250].nic.ids 	neigh116DropLoc 	1
scalar IDSforWSN.node[250].nic.ids 	neigh116DropGlob 	1
scalar IDSforWSN.node[250].nic.ids 	neighbour116IntentionalPacketDropping 	0
scalar IDSforWSN.node[250].nic.ids 	neigh185PackRec 	10
scalar IDSforWSN.node[250].nic.ids 	neigh185PackFwd 	1
scalar IDSforWSN.node[250].nic.ids 	neigh185DropLoc 	1
scalar IDSforWSN.node[250].nic.ids 	neigh185DropGlob 	0
scalar IDSforWSN.node[250].nic.ids 	neighbour185IntentionalPacketDropping 	0
scalar IDSforWSN.node[250].nic.ids 	neigh206PackRec 	1194
scalar IDSforWSN.node[250].nic.ids 	neigh206PackFwd 	592
scalar IDSforWSN.node[250].nic.ids 	neigh206DropLoc 	1
scalar IDSforWSN.node[250].nic.ids 	neigh206DropGlob 	1
scalar IDSforWSN.node[250].nic.ids 	neighbour206IntentionalPacketDropping 	0.5
scalar IDSforWSN.node[250].nic.ids 	neigh211PackRec 	3
scalar IDSforWSN.node[250].nic.ids 	neigh211PackFwd 	0
scalar IDSforWSN.node[250].nic.ids 	neigh211DropLoc 	1
scalar IDSforWSN.node[250].nic.ids 	neigh211DropGlob 	0
scalar IDSforWSN.node[250].nic.ids 	neighbour211IntentionalPacketDropping 	0
scalar IDSforWSN.node[250].nic.ids 	neigh239PackRec 	51
scalar IDSforWSN.node[250].nic.ids 	neigh239PackFwd 	25
scalar IDSforWSN.node[250].nic.ids 	neigh239DropLoc 	1
scalar IDSforWSN.node[250].nic.ids 	neigh239DropGlob 	0
scalar IDSforWSN.node[250].nic.ids 	neighbour239IntentionalPacketDropping 	0
scalar IDSforWSN.node[250].nic.ids 	neigh241PackRec 	13
scalar IDSforWSN.node[250].nic.ids 	neigh241PackFwd 	7
scalar IDSforWSN.node[250].nic.ids 	neigh241DropLoc 	1
scalar IDSforWSN.node[250].nic.ids 	neigh241DropGlob 	0
scalar IDSforWSN.node[250].nic.ids 	neighbour241IntentionalPacketDropping 	0
scalar IDSforWSN.node[250].nic.ids 	neigh246PackRec 	56
scalar IDSforWSN.node[250].nic.ids 	neigh246PackFwd 	43
scalar IDSforWSN.node[250].nic.ids 	neigh246DropLoc 	1
scalar IDSforWSN.node[250].nic.ids 	neigh246DropGlob 	0
scalar IDSforWSN.node[250].nic.ids 	neighbour246IntentionalPacketDropping 	0
scalar IDSforWSN.node[250].nic.ids 	Neigbors_forwardersMap 	23
scalar IDSforWSN.node[250].nic.ids 	Neighbors_neighborsSet 	61
scalar IDSforWSN.node[250].nic.ids 	data_packets_intercepted 	16473
scalar IDSforWSN.node[250].nic.ids 	data_packets_me_to_somebody 	0
scalar IDSforWSN.node[250].nic.ids 	data_packets_somebody_to_me 	10451
scalar IDSforWSN.node[250].nic.ids 	data_packets_somebody_to_somebody 	6022
