version 2
run Test2-0-20150211-17:59:05-4464
attr configname Test2
attr datetime 20150211-17:59:05
attr experiment Test2
attr inifile omnetpp.ini
attr iterationvars ""
attr iterationvars2 $repetition=0
attr measurement ""
attr network idsforwsn.networks.IDSforWSN
attr processid 4464
attr repetition 0
attr replication #0
attr resultdir results
attr runnumber 0
attr seedset 0

statistic IDSforWSN.simHelper 	numNeighbors
field count 251
field mean 2.7330677290837
field stddev 3.097815706493
field sum 686
field sqrsum 4274
field min 0
field max 12
attr type  int
bin	-INF	0
bin	-6	0
bin	-5	0
bin	-4	0
bin	-3	0
bin	-2	0
bin	-1	0
bin	0	87
bin	1	37
bin	2	26
bin	3	21
bin	4	15
bin	5	13
bin	6	15
bin	7	10
bin	8	13
bin	9	4
bin	10	3
bin	11	5
bin	12	2
bin	13	0
bin	14	0
bin	15	0
bin	16	0
bin	17	0
bin	18	0
scalar IDSforWSN.simHelper 	"neighbors in average" 	2.7330677290837
scalar IDSforWSN.node[0].nic.ids 	neigh116PackRec 	1
scalar IDSforWSN.node[0].nic.ids 	neigh116PackFwd 	1
scalar IDSforWSN.node[0].nic.ids 	neigh116DropLoc 	0
scalar IDSforWSN.node[0].nic.ids 	neigh116DropGlob 	0
scalar IDSforWSN.node[0].nic.ids 	neighbour116IntentionalPacketDropping 	0
scalar IDSforWSN.node[0].nic.ids 	Neigbors_forwardersMap 	1
scalar IDSforWSN.node[0].nic.ids 	Neighbors_neighborsSet 	5
scalar IDSforWSN.node[0].nic.ids 	data_packets_intercepted 	7
scalar IDSforWSN.node[0].nic.ids 	data_packets_me_to_somebody 	0
scalar IDSforWSN.node[0].nic.ids 	data_packets_somebody_to_me 	0
scalar IDSforWSN.node[0].nic.ids 	data_packets_somebody_to_somebody 	7
scalar IDSforWSN.node[1].nic.ids 	neigh108PackRec 	2
scalar IDSforWSN.node[1].nic.ids 	neigh108PackFwd 	2
scalar IDSforWSN.node[1].nic.ids 	neigh108DropLoc 	0
scalar IDSforWSN.node[1].nic.ids 	neigh108DropGlob 	0
scalar IDSforWSN.node[1].nic.ids 	neighbour108IntentionalPacketDropping 	0
scalar IDSforWSN.node[1].nic.ids 	Neigbors_forwardersMap 	1
scalar IDSforWSN.node[1].nic.ids 	Neighbors_neighborsSet 	8
scalar IDSforWSN.node[1].nic.ids 	data_packets_intercepted 	9
scalar IDSforWSN.node[1].nic.ids 	data_packets_me_to_somebody 	0
scalar IDSforWSN.node[1].nic.ids 	data_packets_somebody_to_me 	0
scalar IDSforWSN.node[1].nic.ids 	data_packets_somebody_to_somebody 	9
scalar IDSforWSN.node[2].nic.ids 	Neigbors_forwardersMap 	0
scalar IDSforWSN.node[2].nic.ids 	Neighbors_neighborsSet 	0
scalar IDSforWSN.node[2].nic.ids 	data_packets_intercepted 	0
scalar IDSforWSN.node[2].nic.ids 	data_packets_me_to_somebody 	0
scalar IDSforWSN.node[2].nic.ids 	data_packets_somebody_to_me 	0
scalar IDSforWSN.node[2].nic.ids 	data_packets_somebody_to_somebody 	0
scalar IDSforWSN.node[3].nic.ids 	Neigbors_forwardersMap 	0
scalar IDSforWSN.node[3].nic.ids 	Neighbors_neighborsSet 	1
scalar IDSforWSN.node[3].nic.ids 	data_packets_intercepted 	1
scalar IDSforWSN.node[3].nic.ids 	data_packets_me_to_somebody 	0
scalar IDSforWSN.node[3].nic.ids 	data_packets_somebody_to_me 	0
scalar IDSforWSN.node[3].nic.ids 	data_packets_somebody_to_somebody 	1
scalar IDSforWSN.node[4].nic.ids 	Neigbors_forwardersMap 	0
scalar IDSforWSN.node[4].nic.ids 	Neighbors_neighborsSet 	2
scalar IDSforWSN.node[4].nic.ids 	data_packets_intercepted 	2
scalar IDSforWSN.node[4].nic.ids 	data_packets_me_to_somebody 	0
scalar IDSforWSN.node[4].nic.ids 	data_packets_somebody_to_me 	0
scalar IDSforWSN.node[4].nic.ids 	data_packets_somebody_to_somebody 	2
scalar IDSforWSN.node[5].nic.ids 	Neigbors_forwardersMap 	0
scalar IDSforWSN.node[5].nic.ids 	Neighbors_neighborsSet 	1
scalar IDSforWSN.node[5].nic.ids 	data_packets_intercepted 	1
scalar IDSforWSN.node[5].nic.ids 	data_packets_me_to_somebody 	0
scalar IDSforWSN.node[5].nic.ids 	data_packets_somebody_to_me 	0
scalar IDSforWSN.node[5].nic.ids 	data_packets_somebody_to_somebody 	1
scalar IDSforWSN.node[6].nic.ids 	Neigbors_forwardersMap 	0
scalar IDSforWSN.node[6].nic.ids 	Neighbors_neighborsSet 	2
scalar IDSforWSN.node[6].nic.ids 	data_packets_intercepted 	2
scalar IDSforWSN.node[6].nic.ids 	data_packets_me_to_somebody 	0
scalar IDSforWSN.node[6].nic.ids 	data_packets_somebody_to_me 	0
scalar IDSforWSN.node[6].nic.ids 	data_packets_somebody_to_somebody 	2
scalar IDSforWSN.node[7].nic.ids 	Neigbors_forwardersMap 	0
scalar IDSforWSN.node[7].nic.ids 	Neighbors_neighborsSet 	1
scalar IDSforWSN.node[7].nic.ids 	data_packets_intercepted 	1
scalar IDSforWSN.node[7].nic.ids 	data_packets_me_to_somebody 	0
scalar IDSforWSN.node[7].nic.ids 	data_packets_somebody_to_me 	0
scalar IDSforWSN.node[7].nic.ids 	data_packets_somebody_to_somebody 	1
scalar IDSforWSN.node[8].nic.ids 	neigh108PackRec 	1
scalar IDSforWSN.node[8].nic.ids 	neigh108PackFwd 	1
scalar IDSforWSN.node[8].nic.ids 	neigh108DropLoc 	0
scalar IDSforWSN.node[8].nic.ids 	neigh108DropGlob 	0
scalar IDSforWSN.node[8].nic.ids 	neighbour108IntentionalPacketDropping 	0
scalar IDSforWSN.node[8].nic.ids 	Neigbors_forwardersMap 	1
scalar IDSforWSN.node[8].nic.ids 	Neighbors_neighborsSet 	6
scalar IDSforWSN.node[8].nic.ids 	data_packets_intercepted 	11
scalar IDSforWSN.node[8].nic.ids 	data_packets_me_to_somebody 	3
scalar IDSforWSN.node[8].nic.ids 	data_packets_somebody_to_me 	3
scalar IDSforWSN.node[8].nic.ids 	data_packets_somebody_to_somebody 	5
scalar IDSforWSN.node[9].nic.ids 	neigh116PackRec 	3
scalar IDSforWSN.node[9].nic.ids 	neigh116PackFwd 	2
scalar IDSforWSN.node[9].nic.ids 	neigh116DropLoc 	0
scalar IDSforWSN.node[9].nic.ids 	neigh116DropGlob 	0
scalar IDSforWSN.node[9].nic.ids 	neighbour116IntentionalPacketDropping 	0
scalar IDSforWSN.node[9].nic.ids 	Neigbors_forwardersMap 	1
scalar IDSforWSN.node[9].nic.ids 	Neighbors_neighborsSet 	8
scalar IDSforWSN.node[9].nic.ids 	data_packets_intercepted 	10
scalar IDSforWSN.node[9].nic.ids 	data_packets_me_to_somebody 	1
scalar IDSforWSN.node[9].nic.ids 	data_packets_somebody_to_me 	1
scalar IDSforWSN.node[9].nic.ids 	data_packets_somebody_to_somebody 	8
scalar IDSforWSN.node[10].nic.ids 	Neigbors_forwardersMap 	0
scalar IDSforWSN.node[10].nic.ids 	Neighbors_neighborsSet 	2
scalar IDSforWSN.node[10].nic.ids 	data_packets_intercepted 	2
scalar IDSforWSN.node[10].nic.ids 	data_packets_me_to_somebody 	0
scalar IDSforWSN.node[10].nic.ids 	data_packets_somebody_to_me 	0
scalar IDSforWSN.node[10].nic.ids 	data_packets_somebody_to_somebody 	2
scalar IDSforWSN.node[11].nic.ids 	Neigbors_forwardersMap 	0
scalar IDSforWSN.node[11].nic.ids 	Neighbors_neighborsSet 	3
scalar IDSforWSN.node[11].nic.ids 	data_packets_intercepted 	3
scalar IDSforWSN.node[11].nic.ids 	data_packets_me_to_somebody 	0
scalar IDSforWSN.node[11].nic.ids 	data_packets_somebody_to_me 	0
scalar IDSforWSN.node[11].nic.ids 	data_packets_somebody_to_somebody 	3
scalar IDSforWSN.node[12].nic.ids 	neigh116PackRec 	1
scalar IDSforWSN.node[12].nic.ids 	neigh116PackFwd 	0
scalar IDSforWSN.node[12].nic.ids 	neigh116DropLoc 	0
scalar IDSforWSN.node[12].nic.ids 	neigh116DropGlob 	0
scalar IDSforWSN.node[12].nic.ids 	neighbour116IntentionalPacketDropping 	0
scalar IDSforWSN.node[12].nic.ids 	neigh239PackRec 	1
scalar IDSforWSN.node[12].nic.ids 	neigh239PackFwd 	1
scalar IDSforWSN.node[12].nic.ids 	neigh239DropLoc 	0
scalar IDSforWSN.node[12].nic.ids 	neigh239DropGlob 	0
scalar IDSforWSN.node[12].nic.ids 	neighbour239IntentionalPacketDropping 	0
scalar IDSforWSN.node[12].nic.ids 	Neigbors_forwardersMap 	2
scalar IDSforWSN.node[12].nic.ids 	Neighbors_neighborsSet 	12
scalar IDSforWSN.node[12].nic.ids 	data_packets_intercepted 	12
scalar IDSforWSN.node[12].nic.ids 	data_packets_me_to_somebody 	0
scalar IDSforWSN.node[12].nic.ids 	data_packets_somebody_to_me 	0
scalar IDSforWSN.node[12].nic.ids 	data_packets_somebody_to_somebody 	12
scalar IDSforWSN.node[13].nic.ids 	neigh197PackRec 	1
scalar IDSforWSN.node[13].nic.ids 	neigh197PackFwd 	1
scalar IDSforWSN.node[13].nic.ids 	neigh197DropLoc 	0
scalar IDSforWSN.node[13].nic.ids 	neigh197DropGlob 	0
scalar IDSforWSN.node[13].nic.ids 	neighbour197IntentionalPacketDropping 	0
scalar IDSforWSN.node[13].nic.ids 	Neigbors_forwardersMap 	1
scalar IDSforWSN.node[13].nic.ids 	Neighbors_neighborsSet 	3
scalar IDSforWSN.node[13].nic.ids 	data_packets_intercepted 	3
scalar IDSforWSN.node[13].nic.ids 	data_packets_me_to_somebody 	0
scalar IDSforWSN.node[13].nic.ids 	data_packets_somebody_to_me 	0
scalar IDSforWSN.node[13].nic.ids 	data_packets_somebody_to_somebody 	3
scalar IDSforWSN.node[14].nic.ids 	neigh36PackRec 	1
scalar IDSforWSN.node[14].nic.ids 	neigh36PackFwd 	1
scalar IDSforWSN.node[14].nic.ids 	neigh36DropLoc 	0
scalar IDSforWSN.node[14].nic.ids 	neigh36DropGlob 	0
scalar IDSforWSN.node[14].nic.ids 	neighbour36IntentionalPacketDropping 	0
scalar IDSforWSN.node[14].nic.ids 	Neigbors_forwardersMap 	1
scalar IDSforWSN.node[14].nic.ids 	Neighbors_neighborsSet 	2
scalar IDSforWSN.node[14].nic.ids 	data_packets_intercepted 	2
scalar IDSforWSN.node[14].nic.ids 	data_packets_me_to_somebody 	0
scalar IDSforWSN.node[14].nic.ids 	data_packets_somebody_to_me 	0
scalar IDSforWSN.node[14].nic.ids 	data_packets_somebody_to_somebody 	2
scalar IDSforWSN.node[15].nic.ids 	Neigbors_forwardersMap 	0
scalar IDSforWSN.node[15].nic.ids 	Neighbors_neighborsSet 	0
scalar IDSforWSN.node[15].nic.ids 	data_packets_intercepted 	0
scalar IDSforWSN.node[15].nic.ids 	data_packets_me_to_somebody 	0
scalar IDSforWSN.node[15].nic.ids 	data_packets_somebody_to_me 	0
scalar IDSforWSN.node[15].nic.ids 	data_packets_somebody_to_somebody 	0
scalar IDSforWSN.node[16].nic.ids 	Neigbors_forwardersMap 	0
scalar IDSforWSN.node[16].nic.ids 	Neighbors_neighborsSet 	0
scalar IDSforWSN.node[16].nic.ids 	data_packets_intercepted 	0
scalar IDSforWSN.node[16].nic.ids 	data_packets_me_to_somebody 	0
scalar IDSforWSN.node[16].nic.ids 	data_packets_somebody_to_me 	0
scalar IDSforWSN.node[16].nic.ids 	data_packets_somebody_to_somebody 	0
scalar IDSforWSN.node[17].nic.ids 	Neigbors_forwardersMap 	0
scalar IDSforWSN.node[17].nic.ids 	Neighbors_neighborsSet 	2
scalar IDSforWSN.node[17].nic.ids 	data_packets_intercepted 	2
scalar IDSforWSN.node[17].nic.ids 	data_packets_me_to_somebody 	0
scalar IDSforWSN.node[17].nic.ids 	data_packets_somebody_to_me 	0
scalar IDSforWSN.node[17].nic.ids 	data_packets_somebody_to_somebody 	2
scalar IDSforWSN.node[18].nic.ids 	Neigbors_forwardersMap 	0
scalar IDSforWSN.node[18].nic.ids 	Neighbors_neighborsSet 	0
scalar IDSforWSN.node[18].nic.ids 	data_packets_intercepted 	0
scalar IDSforWSN.node[18].nic.ids 	data_packets_me_to_somebody 	0
scalar IDSforWSN.node[18].nic.ids 	data_packets_somebody_to_me 	0
scalar IDSforWSN.node[18].nic.ids 	data_packets_somebody_to_somebody 	0
scalar IDSforWSN.node[19].nic.ids 	neigh116PackRec 	1
scalar IDSforWSN.node[19].nic.ids 	neigh116PackFwd 	1
scalar IDSforWSN.node[19].nic.ids 	neigh116DropLoc 	0
scalar IDSforWSN.node[19].nic.ids 	neigh116DropGlob 	0
scalar IDSforWSN.node[19].nic.ids 	neighbour116IntentionalPacketDropping 	0
scalar IDSforWSN.node[19].nic.ids 	neigh206PackRec 	1
scalar IDSforWSN.node[19].nic.ids 	neigh206PackFwd 	0
scalar IDSforWSN.node[19].nic.ids 	neigh206DropLoc 	0
scalar IDSforWSN.node[19].nic.ids 	neigh206DropGlob 	0
scalar IDSforWSN.node[19].nic.ids 	neighbour206IntentionalPacketDropping 	0.5
scalar IDSforWSN.node[19].nic.ids 	Neigbors_forwardersMap 	2
scalar IDSforWSN.node[19].nic.ids 	Neighbors_neighborsSet 	6
scalar IDSforWSN.node[19].nic.ids 	data_packets_intercepted 	11
scalar IDSforWSN.node[19].nic.ids 	data_packets_me_to_somebody 	0
scalar IDSforWSN.node[19].nic.ids 	data_packets_somebody_to_me 	0
scalar IDSforWSN.node[19].nic.ids 	data_packets_somebody_to_somebody 	11
scalar IDSforWSN.node[20].nic.ids 	neigh108PackRec 	1
scalar IDSforWSN.node[20].nic.ids 	neigh108PackFwd 	0
scalar IDSforWSN.node[20].nic.ids 	neigh108DropLoc 	0
scalar IDSforWSN.node[20].nic.ids 	neigh108DropGlob 	0
scalar IDSforWSN.node[20].nic.ids 	neighbour108IntentionalPacketDropping 	0
scalar IDSforWSN.node[20].nic.ids 	Neigbors_forwardersMap 	1
scalar IDSforWSN.node[20].nic.ids 	Neighbors_neighborsSet 	5
scalar IDSforWSN.node[20].nic.ids 	data_packets_intercepted 	5
scalar IDSforWSN.node[20].nic.ids 	data_packets_me_to_somebody 	0
scalar IDSforWSN.node[20].nic.ids 	data_packets_somebody_to_me 	0
scalar IDSforWSN.node[20].nic.ids 	data_packets_somebody_to_somebody 	5
scalar IDSforWSN.node[21].nic.ids 	Neigbors_forwardersMap 	0
scalar IDSforWSN.node[21].nic.ids 	Neighbors_neighborsSet 	5
scalar IDSforWSN.node[21].nic.ids 	data_packets_intercepted 	5
scalar IDSforWSN.node[21].nic.ids 	data_packets_me_to_somebody 	0
scalar IDSforWSN.node[21].nic.ids 	data_packets_somebody_to_me 	0
scalar IDSforWSN.node[21].nic.ids 	data_packets_somebody_to_somebody 	5
scalar IDSforWSN.node[22].nic.ids 	Neigbors_forwardersMap 	0
scalar IDSforWSN.node[22].nic.ids 	Neighbors_neighborsSet 	4
scalar IDSforWSN.node[22].nic.ids 	data_packets_intercepted 	4
scalar IDSforWSN.node[22].nic.ids 	data_packets_me_to_somebody 	0
scalar IDSforWSN.node[22].nic.ids 	data_packets_somebody_to_me 	0
scalar IDSforWSN.node[22].nic.ids 	data_packets_somebody_to_somebody 	4
scalar IDSforWSN.node[23].nic.ids 	neigh8PackRec 	2
scalar IDSforWSN.node[23].nic.ids 	neigh8PackFwd 	2
scalar IDSforWSN.node[23].nic.ids 	neigh8DropLoc 	0
scalar IDSforWSN.node[23].nic.ids 	neigh8DropGlob 	0
scalar IDSforWSN.node[23].nic.ids 	neighbour8IntentionalPacketDropping 	0
scalar IDSforWSN.node[23].nic.ids 	neigh108PackRec 	2
scalar IDSforWSN.node[23].nic.ids 	neigh108PackFwd 	2
scalar IDSforWSN.node[23].nic.ids 	neigh108DropLoc 	0
scalar IDSforWSN.node[23].nic.ids 	neigh108DropGlob 	0
scalar IDSforWSN.node[23].nic.ids 	neighbour108IntentionalPacketDropping 	0
scalar IDSforWSN.node[23].nic.ids 	neigh206PackRec 	2
scalar IDSforWSN.node[23].nic.ids 	neigh206PackFwd 	1
scalar IDSforWSN.node[23].nic.ids 	neigh206DropLoc 	0
scalar IDSforWSN.node[23].nic.ids 	neigh206DropGlob 	0
scalar IDSforWSN.node[23].nic.ids 	neighbour206IntentionalPacketDropping 	0.5
scalar IDSforWSN.node[23].nic.ids 	Neigbors_forwardersMap 	3
scalar IDSforWSN.node[23].nic.ids 	Neighbors_neighborsSet 	12
scalar IDSforWSN.node[23].nic.ids 	data_packets_intercepted 	16
scalar IDSforWSN.node[23].nic.ids 	data_packets_me_to_somebody 	0
scalar IDSforWSN.node[23].nic.ids 	data_packets_somebody_to_me 	0
scalar IDSforWSN.node[23].nic.ids 	data_packets_somebody_to_somebody 	16
scalar IDSforWSN.node[24].nic.ids 	Neigbors_forwardersMap 	0
scalar IDSforWSN.node[24].nic.ids 	Neighbors_neighborsSet 	1
scalar IDSforWSN.node[24].nic.ids 	data_packets_intercepted 	1
scalar IDSforWSN.node[24].nic.ids 	data_packets_me_to_somebody 	0
scalar IDSforWSN.node[24].nic.ids 	data_packets_somebody_to_me 	0
scalar IDSforWSN.node[24].nic.ids 	data_packets_somebody_to_somebody 	1
scalar IDSforWSN.node[25].nic.ids 	Neigbors_forwardersMap 	0
scalar IDSforWSN.node[25].nic.ids 	Neighbors_neighborsSet 	0
scalar IDSforWSN.node[25].nic.ids 	data_packets_intercepted 	0
scalar IDSforWSN.node[25].nic.ids 	data_packets_me_to_somebody 	0
scalar IDSforWSN.node[25].nic.ids 	data_packets_somebody_to_me 	0
scalar IDSforWSN.node[25].nic.ids 	data_packets_somebody_to_somebody 	0
scalar IDSforWSN.node[26].nic.ids 	Neigbors_forwardersMap 	0
scalar IDSforWSN.node[26].nic.ids 	Neighbors_neighborsSet 	0
scalar IDSforWSN.node[26].nic.ids 	data_packets_intercepted 	0
scalar IDSforWSN.node[26].nic.ids 	data_packets_me_to_somebody 	0
scalar IDSforWSN.node[26].nic.ids 	data_packets_somebody_to_me 	0
scalar IDSforWSN.node[26].nic.ids 	data_packets_somebody_to_somebody 	0
scalar IDSforWSN.node[27].nic.ids 	Neigbors_forwardersMap 	0
scalar IDSforWSN.node[27].nic.ids 	Neighbors_neighborsSet 	7
scalar IDSforWSN.node[27].nic.ids 	data_packets_intercepted 	10
scalar IDSforWSN.node[27].nic.ids 	data_packets_me_to_somebody 	0
scalar IDSforWSN.node[27].nic.ids 	data_packets_somebody_to_me 	0
scalar IDSforWSN.node[27].nic.ids 	data_packets_somebody_to_somebody 	10
scalar IDSforWSN.node[28].nic.ids 	neigh116PackRec 	1
scalar IDSforWSN.node[28].nic.ids 	neigh116PackFwd 	1
scalar IDSforWSN.node[28].nic.ids 	neigh116DropLoc 	0
scalar IDSforWSN.node[28].nic.ids 	neigh116DropGlob 	0
scalar IDSforWSN.node[28].nic.ids 	neighbour116IntentionalPacketDropping 	0
scalar IDSforWSN.node[28].nic.ids 	Neigbors_forwardersMap 	1
scalar IDSforWSN.node[28].nic.ids 	Neighbors_neighborsSet 	7
scalar IDSforWSN.node[28].nic.ids 	data_packets_intercepted 	8
scalar IDSforWSN.node[28].nic.ids 	data_packets_me_to_somebody 	0
scalar IDSforWSN.node[28].nic.ids 	data_packets_somebody_to_me 	0
scalar IDSforWSN.node[28].nic.ids 	data_packets_somebody_to_somebody 	8
scalar IDSforWSN.node[29].nic.ids 	neigh70PackRec 	1
scalar IDSforWSN.node[29].nic.ids 	neigh70PackFwd 	1
scalar IDSforWSN.node[29].nic.ids 	neigh70DropLoc 	0
scalar IDSforWSN.node[29].nic.ids 	neigh70DropGlob 	0
scalar IDSforWSN.node[29].nic.ids 	neighbour70IntentionalPacketDropping 	0
scalar IDSforWSN.node[29].nic.ids 	Neigbors_forwardersMap 	1
scalar IDSforWSN.node[29].nic.ids 	Neighbors_neighborsSet 	2
scalar IDSforWSN.node[29].nic.ids 	data_packets_intercepted 	3
scalar IDSforWSN.node[29].nic.ids 	data_packets_me_to_somebody 	1
scalar IDSforWSN.node[29].nic.ids 	data_packets_somebody_to_me 	1
scalar IDSforWSN.node[29].nic.ids 	data_packets_somebody_to_somebody 	1
scalar IDSforWSN.node[30].nic.ids 	Neigbors_forwardersMap 	0
scalar IDSforWSN.node[30].nic.ids 	Neighbors_neighborsSet 	0
scalar IDSforWSN.node[30].nic.ids 	data_packets_intercepted 	0
scalar IDSforWSN.node[30].nic.ids 	data_packets_me_to_somebody 	0
scalar IDSforWSN.node[30].nic.ids 	data_packets_somebody_to_me 	0
scalar IDSforWSN.node[30].nic.ids 	data_packets_somebody_to_somebody 	0
scalar IDSforWSN.node[31].nic.ids 	Neigbors_forwardersMap 	0
scalar IDSforWSN.node[31].nic.ids 	Neighbors_neighborsSet 	0
scalar IDSforWSN.node[31].nic.ids 	data_packets_intercepted 	0
scalar IDSforWSN.node[31].nic.ids 	data_packets_me_to_somebody 	0
scalar IDSforWSN.node[31].nic.ids 	data_packets_somebody_to_me 	0
scalar IDSforWSN.node[31].nic.ids 	data_packets_somebody_to_somebody 	0
scalar IDSforWSN.node[32].nic.ids 	neigh108PackRec 	1
scalar IDSforWSN.node[32].nic.ids 	neigh108PackFwd 	1
scalar IDSforWSN.node[32].nic.ids 	neigh108DropLoc 	0
scalar IDSforWSN.node[32].nic.ids 	neigh108DropGlob 	0
scalar IDSforWSN.node[32].nic.ids 	neighbour108IntentionalPacketDropping 	0
scalar IDSforWSN.node[32].nic.ids 	neigh185PackRec 	1
scalar IDSforWSN.node[32].nic.ids 	neigh185PackFwd 	1
scalar IDSforWSN.node[32].nic.ids 	neigh185DropLoc 	0
scalar IDSforWSN.node[32].nic.ids 	neigh185DropGlob 	0
scalar IDSforWSN.node[32].nic.ids 	neighbour185IntentionalPacketDropping 	0
scalar IDSforWSN.node[32].nic.ids 	Neigbors_forwardersMap 	2
scalar IDSforWSN.node[32].nic.ids 	Neighbors_neighborsSet 	5
scalar IDSforWSN.node[32].nic.ids 	data_packets_intercepted 	6
scalar IDSforWSN.node[32].nic.ids 	data_packets_me_to_somebody 	0
scalar IDSforWSN.node[32].nic.ids 	data_packets_somebody_to_me 	0
scalar IDSforWSN.node[32].nic.ids 	data_packets_somebody_to_somebody 	6
scalar IDSforWSN.node[33].nic.ids 	Neigbors_forwardersMap 	0
scalar IDSforWSN.node[33].nic.ids 	Neighbors_neighborsSet 	1
scalar IDSforWSN.node[33].nic.ids 	data_packets_intercepted 	1
scalar IDSforWSN.node[33].nic.ids 	data_packets_me_to_somebody 	0
scalar IDSforWSN.node[33].nic.ids 	data_packets_somebody_to_me 	0
scalar IDSforWSN.node[33].nic.ids 	data_packets_somebody_to_somebody 	1
scalar IDSforWSN.node[34].nic.ids 	Neigbors_forwardersMap 	0
scalar IDSforWSN.node[34].nic.ids 	Neighbors_neighborsSet 	2
scalar IDSforWSN.node[34].nic.ids 	data_packets_intercepted 	2
scalar IDSforWSN.node[34].nic.ids 	data_packets_me_to_somebody 	0
scalar IDSforWSN.node[34].nic.ids 	data_packets_somebody_to_me 	0
scalar IDSforWSN.node[34].nic.ids 	data_packets_somebody_to_somebody 	2
scalar IDSforWSN.node[35].nic.ids 	neigh124PackRec 	1
scalar IDSforWSN.node[35].nic.ids 	neigh124PackFwd 	1
scalar IDSforWSN.node[35].nic.ids 	neigh124DropLoc 	0
scalar IDSforWSN.node[35].nic.ids 	neigh124DropGlob 	0
scalar IDSforWSN.node[35].nic.ids 	neighbour124IntentionalPacketDropping 	0
scalar IDSforWSN.node[35].nic.ids 	Neigbors_forwardersMap 	1
scalar IDSforWSN.node[35].nic.ids 	Neighbors_neighborsSet 	3
scalar IDSforWSN.node[35].nic.ids 	data_packets_intercepted 	4
scalar IDSforWSN.node[35].nic.ids 	data_packets_me_to_somebody 	1
scalar IDSforWSN.node[35].nic.ids 	data_packets_somebody_to_me 	0
scalar IDSforWSN.node[35].nic.ids 	data_packets_somebody_to_somebody 	3
scalar IDSforWSN.node[36].nic.ids 	neigh52PackRec 	1
scalar IDSforWSN.node[36].nic.ids 	neigh52PackFwd 	1
scalar IDSforWSN.node[36].nic.ids 	neigh52DropLoc 	0
scalar IDSforWSN.node[36].nic.ids 	neigh52DropGlob 	0
scalar IDSforWSN.node[36].nic.ids 	neighbour52IntentionalPacketDropping 	0
scalar IDSforWSN.node[36].nic.ids 	Neigbors_forwardersMap 	1
scalar IDSforWSN.node[36].nic.ids 	Neighbors_neighborsSet 	2
scalar IDSforWSN.node[36].nic.ids 	data_packets_intercepted 	3
scalar IDSforWSN.node[36].nic.ids 	data_packets_me_to_somebody 	1
scalar IDSforWSN.node[36].nic.ids 	data_packets_somebody_to_me 	1
scalar IDSforWSN.node[36].nic.ids 	data_packets_somebody_to_somebody 	1
scalar IDSforWSN.node[37].nic.ids 	Neigbors_forwardersMap 	0
scalar IDSforWSN.node[37].nic.ids 	Neighbors_neighborsSet 	4
scalar IDSforWSN.node[37].nic.ids 	data_packets_intercepted 	4
scalar IDSforWSN.node[37].nic.ids 	data_packets_me_to_somebody 	0
scalar IDSforWSN.node[37].nic.ids 	data_packets_somebody_to_me 	0
scalar IDSforWSN.node[37].nic.ids 	data_packets_somebody_to_somebody 	4
scalar IDSforWSN.node[38].nic.ids 	neigh163PackRec 	1
scalar IDSforWSN.node[38].nic.ids 	neigh163PackFwd 	1
scalar IDSforWSN.node[38].nic.ids 	neigh163DropLoc 	0
scalar IDSforWSN.node[38].nic.ids 	neigh163DropGlob 	0
scalar IDSforWSN.node[38].nic.ids 	neighbour163IntentionalPacketDropping 	0
scalar IDSforWSN.node[38].nic.ids 	Neigbors_forwardersMap 	1
scalar IDSforWSN.node[38].nic.ids 	Neighbors_neighborsSet 	5
scalar IDSforWSN.node[38].nic.ids 	data_packets_intercepted 	5
scalar IDSforWSN.node[38].nic.ids 	data_packets_me_to_somebody 	0
scalar IDSforWSN.node[38].nic.ids 	data_packets_somebody_to_me 	0
scalar IDSforWSN.node[38].nic.ids 	data_packets_somebody_to_somebody 	5
scalar IDSforWSN.node[39].nic.ids 	Neigbors_forwardersMap 	0
scalar IDSforWSN.node[39].nic.ids 	Neighbors_neighborsSet 	1
scalar IDSforWSN.node[39].nic.ids 	data_packets_intercepted 	1
scalar IDSforWSN.node[39].nic.ids 	data_packets_me_to_somebody 	0
scalar IDSforWSN.node[39].nic.ids 	data_packets_somebody_to_me 	0
scalar IDSforWSN.node[39].nic.ids 	data_packets_somebody_to_somebody 	1
scalar IDSforWSN.node[40].nic.ids 	neigh108PackRec 	1
scalar IDSforWSN.node[40].nic.ids 	neigh108PackFwd 	0
scalar IDSforWSN.node[40].nic.ids 	neigh108DropLoc 	0
scalar IDSforWSN.node[40].nic.ids 	neigh108DropGlob 	0
scalar IDSforWSN.node[40].nic.ids 	neighbour108IntentionalPacketDropping 	0
scalar IDSforWSN.node[40].nic.ids 	neigh185PackRec 	1
scalar IDSforWSN.node[40].nic.ids 	neigh185PackFwd 	1
scalar IDSforWSN.node[40].nic.ids 	neigh185DropLoc 	0
scalar IDSforWSN.node[40].nic.ids 	neigh185DropGlob 	0
scalar IDSforWSN.node[40].nic.ids 	neighbour185IntentionalPacketDropping 	0
scalar IDSforWSN.node[40].nic.ids 	Neigbors_forwardersMap 	2
scalar IDSforWSN.node[40].nic.ids 	Neighbors_neighborsSet 	5
scalar IDSforWSN.node[40].nic.ids 	data_packets_intercepted 	5
scalar IDSforWSN.node[40].nic.ids 	data_packets_me_to_somebody 	0
scalar IDSforWSN.node[40].nic.ids 	data_packets_somebody_to_me 	0
scalar IDSforWSN.node[40].nic.ids 	data_packets_somebody_to_somebody 	5
scalar IDSforWSN.node[41].nic.ids 	Neigbors_forwardersMap 	0
scalar IDSforWSN.node[41].nic.ids 	Neighbors_neighborsSet 	5
scalar IDSforWSN.node[41].nic.ids 	data_packets_intercepted 	5
scalar IDSforWSN.node[41].nic.ids 	data_packets_me_to_somebody 	0
scalar IDSforWSN.node[41].nic.ids 	data_packets_somebody_to_me 	0
scalar IDSforWSN.node[41].nic.ids 	data_packets_somebody_to_somebody 	5
scalar IDSforWSN.node[42].nic.ids 	Neigbors_forwardersMap 	0
scalar IDSforWSN.node[42].nic.ids 	Neighbors_neighborsSet 	1
scalar IDSforWSN.node[42].nic.ids 	data_packets_intercepted 	1
scalar IDSforWSN.node[42].nic.ids 	data_packets_me_to_somebody 	0
scalar IDSforWSN.node[42].nic.ids 	data_packets_somebody_to_me 	0
scalar IDSforWSN.node[42].nic.ids 	data_packets_somebody_to_somebody 	1
scalar IDSforWSN.node[43].nic.ids 	neigh36PackRec 	1
scalar IDSforWSN.node[43].nic.ids 	neigh36PackFwd 	1
scalar IDSforWSN.node[43].nic.ids 	neigh36DropLoc 	0
scalar IDSforWSN.node[43].nic.ids 	neigh36DropGlob 	0
scalar IDSforWSN.node[43].nic.ids 	neighbour36IntentionalPacketDropping 	0
scalar IDSforWSN.node[43].nic.ids 	Neigbors_forwardersMap 	1
scalar IDSforWSN.node[43].nic.ids 	Neighbors_neighborsSet 	2
scalar IDSforWSN.node[43].nic.ids 	data_packets_intercepted 	3
scalar IDSforWSN.node[43].nic.ids 	data_packets_me_to_somebody 	1
scalar IDSforWSN.node[43].nic.ids 	data_packets_somebody_to_me 	0
scalar IDSforWSN.node[43].nic.ids 	data_packets_somebody_to_somebody 	2
scalar IDSforWSN.node[44].nic.ids 	Neigbors_forwardersMap 	0
scalar IDSforWSN.node[44].nic.ids 	Neighbors_neighborsSet 	0
scalar IDSforWSN.node[44].nic.ids 	data_packets_intercepted 	0
scalar IDSforWSN.node[44].nic.ids 	data_packets_me_to_somebody 	0
scalar IDSforWSN.node[44].nic.ids 	data_packets_somebody_to_me 	0
scalar IDSforWSN.node[44].nic.ids 	data_packets_somebody_to_somebody 	0
scalar IDSforWSN.node[45].nic.ids 	Neigbors_forwardersMap 	0
scalar IDSforWSN.node[45].nic.ids 	Neighbors_neighborsSet 	2
scalar IDSforWSN.node[45].nic.ids 	data_packets_intercepted 	2
scalar IDSforWSN.node[45].nic.ids 	data_packets_me_to_somebody 	0
scalar IDSforWSN.node[45].nic.ids 	data_packets_somebody_to_me 	0
scalar IDSforWSN.node[45].nic.ids 	data_packets_somebody_to_somebody 	2
scalar IDSforWSN.node[46].nic.ids 	Neigbors_forwardersMap 	0
scalar IDSforWSN.node[46].nic.ids 	Neighbors_neighborsSet 	3
scalar IDSforWSN.node[46].nic.ids 	data_packets_intercepted 	3
scalar IDSforWSN.node[46].nic.ids 	data_packets_me_to_somebody 	0
scalar IDSforWSN.node[46].nic.ids 	data_packets_somebody_to_me 	0
scalar IDSforWSN.node[46].nic.ids 	data_packets_somebody_to_somebody 	3
scalar IDSforWSN.node[47].nic.ids 	Neigbors_forwardersMap 	0
scalar IDSforWSN.node[47].nic.ids 	Neighbors_neighborsSet 	0
scalar IDSforWSN.node[47].nic.ids 	data_packets_intercepted 	0
scalar IDSforWSN.node[47].nic.ids 	data_packets_me_to_somebody 	0
scalar IDSforWSN.node[47].nic.ids 	data_packets_somebody_to_me 	0
scalar IDSforWSN.node[47].nic.ids 	data_packets_somebody_to_somebody 	0
scalar IDSforWSN.node[48].nic.ids 	Neigbors_forwardersMap 	0
scalar IDSforWSN.node[48].nic.ids 	Neighbors_neighborsSet 	0
scalar IDSforWSN.node[48].nic.ids 	data_packets_intercepted 	0
scalar IDSforWSN.node[48].nic.ids 	data_packets_me_to_somebody 	0
scalar IDSforWSN.node[48].nic.ids 	data_packets_somebody_to_me 	0
scalar IDSforWSN.node[48].nic.ids 	data_packets_somebody_to_somebody 	0
scalar IDSforWSN.node[49].nic.ids 	neigh206PackRec 	2
scalar IDSforWSN.node[49].nic.ids 	neigh206PackFwd 	0
scalar IDSforWSN.node[49].nic.ids 	neigh206DropLoc 	0
scalar IDSforWSN.node[49].nic.ids 	neigh206DropGlob 	0
scalar IDSforWSN.node[49].nic.ids 	neighbour206IntentionalPacketDropping 	0.5
scalar IDSforWSN.node[49].nic.ids 	neigh246PackRec 	1
scalar IDSforWSN.node[49].nic.ids 	neigh246PackFwd 	1
scalar IDSforWSN.node[49].nic.ids 	neigh246DropLoc 	0
scalar IDSforWSN.node[49].nic.ids 	neigh246DropGlob 	0
scalar IDSforWSN.node[49].nic.ids 	neighbour246IntentionalPacketDropping 	0
scalar IDSforWSN.node[49].nic.ids 	Neigbors_forwardersMap 	2
scalar IDSforWSN.node[49].nic.ids 	Neighbors_neighborsSet 	10
scalar IDSforWSN.node[49].nic.ids 	data_packets_intercepted 	12
scalar IDSforWSN.node[49].nic.ids 	data_packets_me_to_somebody 	1
scalar IDSforWSN.node[49].nic.ids 	data_packets_somebody_to_me 	1
scalar IDSforWSN.node[49].nic.ids 	data_packets_somebody_to_somebody 	10
scalar IDSforWSN.node[50].nic.ids 	Neigbors_forwardersMap 	0
scalar IDSforWSN.node[50].nic.ids 	Neighbors_neighborsSet 	0
scalar IDSforWSN.node[50].nic.ids 	data_packets_intercepted 	0
scalar IDSforWSN.node[50].nic.ids 	data_packets_me_to_somebody 	0
scalar IDSforWSN.node[50].nic.ids 	data_packets_somebody_to_me 	0
scalar IDSforWSN.node[50].nic.ids 	data_packets_somebody_to_somebody 	0
scalar IDSforWSN.node[51].nic.ids 	Neigbors_forwardersMap 	0
scalar IDSforWSN.node[51].nic.ids 	Neighbors_neighborsSet 	3
scalar IDSforWSN.node[51].nic.ids 	data_packets_intercepted 	3
scalar IDSforWSN.node[51].nic.ids 	data_packets_me_to_somebody 	0
scalar IDSforWSN.node[51].nic.ids 	data_packets_somebody_to_me 	0
scalar IDSforWSN.node[51].nic.ids 	data_packets_somebody_to_somebody 	3
scalar IDSforWSN.node[52].nic.ids 	neigh182PackRec 	1
scalar IDSforWSN.node[52].nic.ids 	neigh182PackFwd 	1
scalar IDSforWSN.node[52].nic.ids 	neigh182DropLoc 	0
scalar IDSforWSN.node[52].nic.ids 	neigh182DropGlob 	0
scalar IDSforWSN.node[52].nic.ids 	neighbour182IntentionalPacketDropping 	0
scalar IDSforWSN.node[52].nic.ids 	Neigbors_forwardersMap 	1
scalar IDSforWSN.node[52].nic.ids 	Neighbors_neighborsSet 	2
scalar IDSforWSN.node[52].nic.ids 	data_packets_intercepted 	3
scalar IDSforWSN.node[52].nic.ids 	data_packets_me_to_somebody 	1
scalar IDSforWSN.node[52].nic.ids 	data_packets_somebody_to_me 	1
scalar IDSforWSN.node[52].nic.ids 	data_packets_somebody_to_somebody 	1
scalar IDSforWSN.node[53].nic.ids 	Neigbors_forwardersMap 	0
scalar IDSforWSN.node[53].nic.ids 	Neighbors_neighborsSet 	0
scalar IDSforWSN.node[53].nic.ids 	data_packets_intercepted 	0
scalar IDSforWSN.node[53].nic.ids 	data_packets_me_to_somebody 	0
scalar IDSforWSN.node[53].nic.ids 	data_packets_somebody_to_me 	0
scalar IDSforWSN.node[53].nic.ids 	data_packets_somebody_to_somebody 	0
scalar IDSforWSN.node[54].nic.ids 	neigh8PackRec 	2
scalar IDSforWSN.node[54].nic.ids 	neigh8PackFwd 	2
scalar IDSforWSN.node[54].nic.ids 	neigh8DropLoc 	0
scalar IDSforWSN.node[54].nic.ids 	neigh8DropGlob 	0
scalar IDSforWSN.node[54].nic.ids 	neighbour8IntentionalPacketDropping 	0
scalar IDSforWSN.node[54].nic.ids 	Neigbors_forwardersMap 	1
scalar IDSforWSN.node[54].nic.ids 	Neighbors_neighborsSet 	6
scalar IDSforWSN.node[54].nic.ids 	data_packets_intercepted 	10
scalar IDSforWSN.node[54].nic.ids 	data_packets_me_to_somebody 	1
scalar IDSforWSN.node[54].nic.ids 	data_packets_somebody_to_me 	1
scalar IDSforWSN.node[54].nic.ids 	data_packets_somebody_to_somebody 	8
scalar IDSforWSN.node[55].nic.ids 	neigh108PackRec 	1
scalar IDSforWSN.node[55].nic.ids 	neigh108PackFwd 	0
scalar IDSforWSN.node[55].nic.ids 	neigh108DropLoc 	0
scalar IDSforWSN.node[55].nic.ids 	neigh108DropGlob 	0
scalar IDSforWSN.node[55].nic.ids 	neighbour108IntentionalPacketDropping 	0
scalar IDSforWSN.node[55].nic.ids 	Neigbors_forwardersMap 	1
scalar IDSforWSN.node[55].nic.ids 	Neighbors_neighborsSet 	6
scalar IDSforWSN.node[55].nic.ids 	data_packets_intercepted 	6
scalar IDSforWSN.node[55].nic.ids 	data_packets_me_to_somebody 	0
scalar IDSforWSN.node[55].nic.ids 	data_packets_somebody_to_me 	0
scalar IDSforWSN.node[55].nic.ids 	data_packets_somebody_to_somebody 	6
scalar IDSforWSN.node[56].nic.ids 	Neigbors_forwardersMap 	0
scalar IDSforWSN.node[56].nic.ids 	Neighbors_neighborsSet 	4
scalar IDSforWSN.node[56].nic.ids 	data_packets_intercepted 	4
scalar IDSforWSN.node[56].nic.ids 	data_packets_me_to_somebody 	0
scalar IDSforWSN.node[56].nic.ids 	data_packets_somebody_to_me 	0
scalar IDSforWSN.node[56].nic.ids 	data_packets_somebody_to_somebody 	4
scalar IDSforWSN.node[57].nic.ids 	Neigbors_forwardersMap 	0
scalar IDSforWSN.node[57].nic.ids 	Neighbors_neighborsSet 	1
scalar IDSforWSN.node[57].nic.ids 	data_packets_intercepted 	1
scalar IDSforWSN.node[57].nic.ids 	data_packets_me_to_somebody 	0
scalar IDSforWSN.node[57].nic.ids 	data_packets_somebody_to_me 	0
scalar IDSforWSN.node[57].nic.ids 	data_packets_somebody_to_somebody 	1
scalar IDSforWSN.node[58].nic.ids 	Neigbors_forwardersMap 	0
scalar IDSforWSN.node[58].nic.ids 	Neighbors_neighborsSet 	1
scalar IDSforWSN.node[58].nic.ids 	data_packets_intercepted 	1
scalar IDSforWSN.node[58].nic.ids 	data_packets_me_to_somebody 	0
scalar IDSforWSN.node[58].nic.ids 	data_packets_somebody_to_me 	0
scalar IDSforWSN.node[58].nic.ids 	data_packets_somebody_to_somebody 	1
scalar IDSforWSN.node[59].nic.ids 	neigh116PackRec 	1
scalar IDSforWSN.node[59].nic.ids 	neigh116PackFwd 	1
scalar IDSforWSN.node[59].nic.ids 	neigh116DropLoc 	0
scalar IDSforWSN.node[59].nic.ids 	neigh116DropGlob 	0
scalar IDSforWSN.node[59].nic.ids 	neighbour116IntentionalPacketDropping 	0
scalar IDSforWSN.node[59].nic.ids 	neigh206PackRec 	2
scalar IDSforWSN.node[59].nic.ids 	neigh206PackFwd 	1
scalar IDSforWSN.node[59].nic.ids 	neigh206DropLoc 	0
scalar IDSforWSN.node[59].nic.ids 	neigh206DropGlob 	0
scalar IDSforWSN.node[59].nic.ids 	neighbour206IntentionalPacketDropping 	0.5
scalar IDSforWSN.node[59].nic.ids 	Neigbors_forwardersMap 	2
scalar IDSforWSN.node[59].nic.ids 	Neighbors_neighborsSet 	11
scalar IDSforWSN.node[59].nic.ids 	data_packets_intercepted 	15
scalar IDSforWSN.node[59].nic.ids 	data_packets_me_to_somebody 	0
scalar IDSforWSN.node[59].nic.ids 	data_packets_somebody_to_me 	0
scalar IDSforWSN.node[59].nic.ids 	data_packets_somebody_to_somebody 	15
scalar IDSforWSN.node[60].nic.ids 	neigh8PackRec 	1
scalar IDSforWSN.node[60].nic.ids 	neigh8PackFwd 	1
scalar IDSforWSN.node[60].nic.ids 	neigh8DropLoc 	0
scalar IDSforWSN.node[60].nic.ids 	neigh8DropGlob 	0
scalar IDSforWSN.node[60].nic.ids 	neighbour8IntentionalPacketDropping 	0
scalar IDSforWSN.node[60].nic.ids 	Neigbors_forwardersMap 	1
scalar IDSforWSN.node[60].nic.ids 	Neighbors_neighborsSet 	3
scalar IDSforWSN.node[60].nic.ids 	data_packets_intercepted 	4
scalar IDSforWSN.node[60].nic.ids 	data_packets_me_to_somebody 	0
scalar IDSforWSN.node[60].nic.ids 	data_packets_somebody_to_me 	0
scalar IDSforWSN.node[60].nic.ids 	data_packets_somebody_to_somebody 	4
scalar IDSforWSN.node[61].nic.ids 	Neigbors_forwardersMap 	0
scalar IDSforWSN.node[61].nic.ids 	Neighbors_neighborsSet 	0
scalar IDSforWSN.node[61].nic.ids 	data_packets_intercepted 	0
scalar IDSforWSN.node[61].nic.ids 	data_packets_me_to_somebody 	0
scalar IDSforWSN.node[61].nic.ids 	data_packets_somebody_to_me 	0
scalar IDSforWSN.node[61].nic.ids 	data_packets_somebody_to_somebody 	0
scalar IDSforWSN.node[62].nic.ids 	Neigbors_forwardersMap 	0
scalar IDSforWSN.node[62].nic.ids 	Neighbors_neighborsSet 	1
scalar IDSforWSN.node[62].nic.ids 	data_packets_intercepted 	1
scalar IDSforWSN.node[62].nic.ids 	data_packets_me_to_somebody 	0
scalar IDSforWSN.node[62].nic.ids 	data_packets_somebody_to_me 	0
scalar IDSforWSN.node[62].nic.ids 	data_packets_somebody_to_somebody 	1
scalar IDSforWSN.node[63].nic.ids 	Neigbors_forwardersMap 	0
scalar IDSforWSN.node[63].nic.ids 	Neighbors_neighborsSet 	4
scalar IDSforWSN.node[63].nic.ids 	data_packets_intercepted 	4
scalar IDSforWSN.node[63].nic.ids 	data_packets_me_to_somebody 	0
scalar IDSforWSN.node[63].nic.ids 	data_packets_somebody_to_me 	0
scalar IDSforWSN.node[63].nic.ids 	data_packets_somebody_to_somebody 	4
scalar IDSforWSN.node[64].nic.ids 	Neigbors_forwardersMap 	0
scalar IDSforWSN.node[64].nic.ids 	Neighbors_neighborsSet 	0
scalar IDSforWSN.node[64].nic.ids 	data_packets_intercepted 	0
scalar IDSforWSN.node[64].nic.ids 	data_packets_me_to_somebody 	0
scalar IDSforWSN.node[64].nic.ids 	data_packets_somebody_to_me 	0
scalar IDSforWSN.node[64].nic.ids 	data_packets_somebody_to_somebody 	0
scalar IDSforWSN.node[65].nic.ids 	neigh80PackRec 	1
scalar IDSforWSN.node[65].nic.ids 	neigh80PackFwd 	1
scalar IDSforWSN.node[65].nic.ids 	neigh80DropLoc 	0
scalar IDSforWSN.node[65].nic.ids 	neigh80DropGlob 	0
scalar IDSforWSN.node[65].nic.ids 	neighbour80IntentionalPacketDropping 	0
scalar IDSforWSN.node[65].nic.ids 	Neigbors_forwardersMap 	1
scalar IDSforWSN.node[65].nic.ids 	Neighbors_neighborsSet 	4
scalar IDSforWSN.node[65].nic.ids 	data_packets_intercepted 	5
scalar IDSforWSN.node[65].nic.ids 	data_packets_me_to_somebody 	1
scalar IDSforWSN.node[65].nic.ids 	data_packets_somebody_to_me 	0
scalar IDSforWSN.node[65].nic.ids 	data_packets_somebody_to_somebody 	4
scalar IDSforWSN.node[66].nic.ids 	Neigbors_forwardersMap 	0
scalar IDSforWSN.node[66].nic.ids 	Neighbors_neighborsSet 	1
scalar IDSforWSN.node[66].nic.ids 	data_packets_intercepted 	1
scalar IDSforWSN.node[66].nic.ids 	data_packets_me_to_somebody 	0
scalar IDSforWSN.node[66].nic.ids 	data_packets_somebody_to_me 	0
scalar IDSforWSN.node[66].nic.ids 	data_packets_somebody_to_somebody 	1
scalar IDSforWSN.node[67].nic.ids 	neigh116PackRec 	3
scalar IDSforWSN.node[67].nic.ids 	neigh116PackFwd 	3
scalar IDSforWSN.node[67].nic.ids 	neigh116DropLoc 	0
scalar IDSforWSN.node[67].nic.ids 	neigh116DropGlob 	0
scalar IDSforWSN.node[67].nic.ids 	neighbour116IntentionalPacketDropping 	0
scalar IDSforWSN.node[67].nic.ids 	Neigbors_forwardersMap 	1
scalar IDSforWSN.node[67].nic.ids 	Neighbors_neighborsSet 	6
scalar IDSforWSN.node[67].nic.ids 	data_packets_intercepted 	9
scalar IDSforWSN.node[67].nic.ids 	data_packets_me_to_somebody 	1
scalar IDSforWSN.node[67].nic.ids 	data_packets_somebody_to_me 	0
scalar IDSforWSN.node[67].nic.ids 	data_packets_somebody_to_somebody 	8
scalar IDSforWSN.node[68].nic.ids 	Neigbors_forwardersMap 	0
scalar IDSforWSN.node[68].nic.ids 	Neighbors_neighborsSet 	3
scalar IDSforWSN.node[68].nic.ids 	data_packets_intercepted 	4
scalar IDSforWSN.node[68].nic.ids 	data_packets_me_to_somebody 	0
scalar IDSforWSN.node[68].nic.ids 	data_packets_somebody_to_me 	0
scalar IDSforWSN.node[68].nic.ids 	data_packets_somebody_to_somebody 	4
scalar IDSforWSN.node[69].nic.ids 	Neigbors_forwardersMap 	0
scalar IDSforWSN.node[69].nic.ids 	Neighbors_neighborsSet 	0
scalar IDSforWSN.node[69].nic.ids 	data_packets_intercepted 	0
scalar IDSforWSN.node[69].nic.ids 	data_packets_me_to_somebody 	0
scalar IDSforWSN.node[69].nic.ids 	data_packets_somebody_to_me 	0
scalar IDSforWSN.node[69].nic.ids 	data_packets_somebody_to_somebody 	0
scalar IDSforWSN.node[70].nic.ids 	neigh8PackRec 	1
scalar IDSforWSN.node[70].nic.ids 	neigh8PackFwd 	1
scalar IDSforWSN.node[70].nic.ids 	neigh8DropLoc 	0
scalar IDSforWSN.node[70].nic.ids 	neigh8DropGlob 	0
scalar IDSforWSN.node[70].nic.ids 	neighbour8IntentionalPacketDropping 	0
scalar IDSforWSN.node[70].nic.ids 	Neigbors_forwardersMap 	1
scalar IDSforWSN.node[70].nic.ids 	Neighbors_neighborsSet 	6
scalar IDSforWSN.node[70].nic.ids 	data_packets_intercepted 	9
scalar IDSforWSN.node[70].nic.ids 	data_packets_me_to_somebody 	1
scalar IDSforWSN.node[70].nic.ids 	data_packets_somebody_to_me 	1
scalar IDSforWSN.node[70].nic.ids 	data_packets_somebody_to_somebody 	7
scalar IDSforWSN.node[71].nic.ids 	Neigbors_forwardersMap 	0
scalar IDSforWSN.node[71].nic.ids 	Neighbors_neighborsSet 	0
scalar IDSforWSN.node[71].nic.ids 	data_packets_intercepted 	0
scalar IDSforWSN.node[71].nic.ids 	data_packets_me_to_somebody 	0
scalar IDSforWSN.node[71].nic.ids 	data_packets_somebody_to_me 	0
scalar IDSforWSN.node[71].nic.ids 	data_packets_somebody_to_somebody 	0
scalar IDSforWSN.node[72].nic.ids 	Neigbors_forwardersMap 	0
scalar IDSforWSN.node[72].nic.ids 	Neighbors_neighborsSet 	0
scalar IDSforWSN.node[72].nic.ids 	data_packets_intercepted 	0
scalar IDSforWSN.node[72].nic.ids 	data_packets_me_to_somebody 	0
scalar IDSforWSN.node[72].nic.ids 	data_packets_somebody_to_me 	0
scalar IDSforWSN.node[72].nic.ids 	data_packets_somebody_to_somebody 	0
scalar IDSforWSN.node[73].nic.ids 	neigh197PackRec 	1
scalar IDSforWSN.node[73].nic.ids 	neigh197PackFwd 	1
scalar IDSforWSN.node[73].nic.ids 	neigh197DropLoc 	0
scalar IDSforWSN.node[73].nic.ids 	neigh197DropGlob 	0
scalar IDSforWSN.node[73].nic.ids 	neighbour197IntentionalPacketDropping 	0
scalar IDSforWSN.node[73].nic.ids 	Neigbors_forwardersMap 	1
scalar IDSforWSN.node[73].nic.ids 	Neighbors_neighborsSet 	4
scalar IDSforWSN.node[73].nic.ids 	data_packets_intercepted 	4
scalar IDSforWSN.node[73].nic.ids 	data_packets_me_to_somebody 	0
scalar IDSforWSN.node[73].nic.ids 	data_packets_somebody_to_me 	0
scalar IDSforWSN.node[73].nic.ids 	data_packets_somebody_to_somebody 	4
scalar IDSforWSN.node[74].nic.ids 	neigh29PackRec 	1
scalar IDSforWSN.node[74].nic.ids 	neigh29PackFwd 	1
scalar IDSforWSN.node[74].nic.ids 	neigh29DropLoc 	0
scalar IDSforWSN.node[74].nic.ids 	neigh29DropGlob 	0
scalar IDSforWSN.node[74].nic.ids 	neighbour29IntentionalPacketDropping 	0
scalar IDSforWSN.node[74].nic.ids 	Neigbors_forwardersMap 	1
scalar IDSforWSN.node[74].nic.ids 	Neighbors_neighborsSet 	2
scalar IDSforWSN.node[74].nic.ids 	data_packets_intercepted 	3
scalar IDSforWSN.node[74].nic.ids 	data_packets_me_to_somebody 	1
scalar IDSforWSN.node[74].nic.ids 	data_packets_somebody_to_me 	0
scalar IDSforWSN.node[74].nic.ids 	data_packets_somebody_to_somebody 	2
scalar IDSforWSN.node[75].nic.ids 	Neigbors_forwardersMap 	0
scalar IDSforWSN.node[75].nic.ids 	Neighbors_neighborsSet 	0
scalar IDSforWSN.node[75].nic.ids 	data_packets_intercepted 	0
scalar IDSforWSN.node[75].nic.ids 	data_packets_me_to_somebody 	0
scalar IDSforWSN.node[75].nic.ids 	data_packets_somebody_to_me 	0
scalar IDSforWSN.node[75].nic.ids 	data_packets_somebody_to_somebody 	0
scalar IDSforWSN.node[76].nic.ids 	neigh108PackRec 	1
scalar IDSforWSN.node[76].nic.ids 	neigh108PackFwd 	1
scalar IDSforWSN.node[76].nic.ids 	neigh108DropLoc 	0
scalar IDSforWSN.node[76].nic.ids 	neigh108DropGlob 	0
scalar IDSforWSN.node[76].nic.ids 	neighbour108IntentionalPacketDropping 	0
scalar IDSforWSN.node[76].nic.ids 	Neigbors_forwardersMap 	1
scalar IDSforWSN.node[76].nic.ids 	Neighbors_neighborsSet 	8
scalar IDSforWSN.node[76].nic.ids 	data_packets_intercepted 	9
scalar IDSforWSN.node[76].nic.ids 	data_packets_me_to_somebody 	0
scalar IDSforWSN.node[76].nic.ids 	data_packets_somebody_to_me 	0
scalar IDSforWSN.node[76].nic.ids 	data_packets_somebody_to_somebody 	9
scalar IDSforWSN.node[77].nic.ids 	Neigbors_forwardersMap 	0
scalar IDSforWSN.node[77].nic.ids 	Neighbors_neighborsSet 	0
scalar IDSforWSN.node[77].nic.ids 	data_packets_intercepted 	0
scalar IDSforWSN.node[77].nic.ids 	data_packets_me_to_somebody 	0
scalar IDSforWSN.node[77].nic.ids 	data_packets_somebody_to_me 	0
scalar IDSforWSN.node[77].nic.ids 	data_packets_somebody_to_somebody 	0
scalar IDSforWSN.node[78].nic.ids 	Neigbors_forwardersMap 	0
scalar IDSforWSN.node[78].nic.ids 	Neighbors_neighborsSet 	0
scalar IDSforWSN.node[78].nic.ids 	data_packets_intercepted 	0
scalar IDSforWSN.node[78].nic.ids 	data_packets_me_to_somebody 	0
scalar IDSforWSN.node[78].nic.ids 	data_packets_somebody_to_me 	0
scalar IDSforWSN.node[78].nic.ids 	data_packets_somebody_to_somebody 	0
scalar IDSforWSN.node[79].nic.ids 	neigh197PackRec 	1
scalar IDSforWSN.node[79].nic.ids 	neigh197PackFwd 	1
scalar IDSforWSN.node[79].nic.ids 	neigh197DropLoc 	0
scalar IDSforWSN.node[79].nic.ids 	neigh197DropGlob 	0
scalar IDSforWSN.node[79].nic.ids 	neighbour197IntentionalPacketDropping 	0
scalar IDSforWSN.node[79].nic.ids 	Neigbors_forwardersMap 	1
scalar IDSforWSN.node[79].nic.ids 	Neighbors_neighborsSet 	5
scalar IDSforWSN.node[79].nic.ids 	data_packets_intercepted 	5
scalar IDSforWSN.node[79].nic.ids 	data_packets_me_to_somebody 	0
scalar IDSforWSN.node[79].nic.ids 	data_packets_somebody_to_me 	0
scalar IDSforWSN.node[79].nic.ids 	data_packets_somebody_to_somebody 	5
scalar IDSforWSN.node[80].nic.ids 	neigh8PackRec 	1
scalar IDSforWSN.node[80].nic.ids 	neigh8PackFwd 	0
scalar IDSforWSN.node[80].nic.ids 	neigh8DropLoc 	0
scalar IDSforWSN.node[80].nic.ids 	neigh8DropGlob 	0
scalar IDSforWSN.node[80].nic.ids 	neighbour8IntentionalPacketDropping 	0
scalar IDSforWSN.node[80].nic.ids 	neigh108PackRec 	2
scalar IDSforWSN.node[80].nic.ids 	neigh108PackFwd 	2
scalar IDSforWSN.node[80].nic.ids 	neigh108DropLoc 	0
scalar IDSforWSN.node[80].nic.ids 	neigh108DropGlob 	0
scalar IDSforWSN.node[80].nic.ids 	neighbour108IntentionalPacketDropping 	0
scalar IDSforWSN.node[80].nic.ids 	neigh206PackRec 	2
scalar IDSforWSN.node[80].nic.ids 	neigh206PackFwd 	0
scalar IDSforWSN.node[80].nic.ids 	neigh206DropLoc 	0
scalar IDSforWSN.node[80].nic.ids 	neigh206DropGlob 	0
scalar IDSforWSN.node[80].nic.ids 	neighbour206IntentionalPacketDropping 	0.5
scalar IDSforWSN.node[80].nic.ids 	Neigbors_forwardersMap 	3
scalar IDSforWSN.node[80].nic.ids 	Neighbors_neighborsSet 	10
scalar IDSforWSN.node[80].nic.ids 	data_packets_intercepted 	12
scalar IDSforWSN.node[80].nic.ids 	data_packets_me_to_somebody 	1
scalar IDSforWSN.node[80].nic.ids 	data_packets_somebody_to_me 	1
scalar IDSforWSN.node[80].nic.ids 	data_packets_somebody_to_somebody 	10
scalar IDSforWSN.node[81].nic.ids 	neigh197PackRec 	1
scalar IDSforWSN.node[81].nic.ids 	neigh197PackFwd 	1
scalar IDSforWSN.node[81].nic.ids 	neigh197DropLoc 	0
scalar IDSforWSN.node[81].nic.ids 	neigh197DropGlob 	0
scalar IDSforWSN.node[81].nic.ids 	neighbour197IntentionalPacketDropping 	0
scalar IDSforWSN.node[81].nic.ids 	Neigbors_forwardersMap 	1
scalar IDSforWSN.node[81].nic.ids 	Neighbors_neighborsSet 	3
scalar IDSforWSN.node[81].nic.ids 	data_packets_intercepted 	4
scalar IDSforWSN.node[81].nic.ids 	data_packets_me_to_somebody 	1
scalar IDSforWSN.node[81].nic.ids 	data_packets_somebody_to_me 	0
scalar IDSforWSN.node[81].nic.ids 	data_packets_somebody_to_somebody 	3
scalar IDSforWSN.node[82].nic.ids 	neigh8PackRec 	1
scalar IDSforWSN.node[82].nic.ids 	neigh8PackFwd 	0
scalar IDSforWSN.node[82].nic.ids 	neigh8DropLoc 	0
scalar IDSforWSN.node[82].nic.ids 	neigh8DropGlob 	0
scalar IDSforWSN.node[82].nic.ids 	neighbour8IntentionalPacketDropping 	0
scalar IDSforWSN.node[82].nic.ids 	neigh54PackRec 	1
scalar IDSforWSN.node[82].nic.ids 	neigh54PackFwd 	1
scalar IDSforWSN.node[82].nic.ids 	neigh54DropLoc 	0
scalar IDSforWSN.node[82].nic.ids 	neigh54DropGlob 	0
scalar IDSforWSN.node[82].nic.ids 	neighbour54IntentionalPacketDropping 	0
scalar IDSforWSN.node[82].nic.ids 	neigh108PackRec 	1
scalar IDSforWSN.node[82].nic.ids 	neigh108PackFwd 	1
scalar IDSforWSN.node[82].nic.ids 	neigh108DropLoc 	0
scalar IDSforWSN.node[82].nic.ids 	neigh108DropGlob 	0
scalar IDSforWSN.node[82].nic.ids 	neighbour108IntentionalPacketDropping 	0
scalar IDSforWSN.node[82].nic.ids 	Neigbors_forwardersMap 	3
scalar IDSforWSN.node[82].nic.ids 	Neighbors_neighborsSet 	8
scalar IDSforWSN.node[82].nic.ids 	data_packets_intercepted 	9
scalar IDSforWSN.node[82].nic.ids 	data_packets_me_to_somebody 	0
scalar IDSforWSN.node[82].nic.ids 	data_packets_somebody_to_me 	0
scalar IDSforWSN.node[82].nic.ids 	data_packets_somebody_to_somebody 	9
scalar IDSforWSN.node[83].nic.ids 	Neigbors_forwardersMap 	0
scalar IDSforWSN.node[83].nic.ids 	Neighbors_neighborsSet 	0
scalar IDSforWSN.node[83].nic.ids 	data_packets_intercepted 	0
scalar IDSforWSN.node[83].nic.ids 	data_packets_me_to_somebody 	0
scalar IDSforWSN.node[83].nic.ids 	data_packets_somebody_to_me 	0
scalar IDSforWSN.node[83].nic.ids 	data_packets_somebody_to_somebody 	0
scalar IDSforWSN.node[84].nic.ids 	Neigbors_forwardersMap 	0
scalar IDSforWSN.node[84].nic.ids 	Neighbors_neighborsSet 	0
scalar IDSforWSN.node[84].nic.ids 	data_packets_intercepted 	0
scalar IDSforWSN.node[84].nic.ids 	data_packets_me_to_somebody 	0
scalar IDSforWSN.node[84].nic.ids 	data_packets_somebody_to_me 	0
scalar IDSforWSN.node[84].nic.ids 	data_packets_somebody_to_somebody 	0
scalar IDSforWSN.node[85].nic.ids 	neigh29PackRec 	1
scalar IDSforWSN.node[85].nic.ids 	neigh29PackFwd 	1
scalar IDSforWSN.node[85].nic.ids 	neigh29DropLoc 	0
scalar IDSforWSN.node[85].nic.ids 	neigh29DropGlob 	0
scalar IDSforWSN.node[85].nic.ids 	neighbour29IntentionalPacketDropping 	0
scalar IDSforWSN.node[85].nic.ids 	Neigbors_forwardersMap 	1
scalar IDSforWSN.node[85].nic.ids 	Neighbors_neighborsSet 	3
scalar IDSforWSN.node[85].nic.ids 	data_packets_intercepted 	3
scalar IDSforWSN.node[85].nic.ids 	data_packets_me_to_somebody 	0
scalar IDSforWSN.node[85].nic.ids 	data_packets_somebody_to_me 	0
scalar IDSforWSN.node[85].nic.ids 	data_packets_somebody_to_somebody 	3
scalar IDSforWSN.node[86].nic.ids 	Neigbors_forwardersMap 	0
scalar IDSforWSN.node[86].nic.ids 	Neighbors_neighborsSet 	0
scalar IDSforWSN.node[86].nic.ids 	data_packets_intercepted 	0
scalar IDSforWSN.node[86].nic.ids 	data_packets_me_to_somebody 	0
scalar IDSforWSN.node[86].nic.ids 	data_packets_somebody_to_me 	0
scalar IDSforWSN.node[86].nic.ids 	data_packets_somebody_to_somebody 	0
scalar IDSforWSN.node[87].nic.ids 	neigh8PackRec 	2
scalar IDSforWSN.node[87].nic.ids 	neigh8PackFwd 	1
scalar IDSforWSN.node[87].nic.ids 	neigh8DropLoc 	0
scalar IDSforWSN.node[87].nic.ids 	neigh8DropGlob 	0
scalar IDSforWSN.node[87].nic.ids 	neighbour8IntentionalPacketDropping 	0
scalar IDSforWSN.node[87].nic.ids 	neigh54PackRec 	1
scalar IDSforWSN.node[87].nic.ids 	neigh54PackFwd 	1
scalar IDSforWSN.node[87].nic.ids 	neigh54DropLoc 	0
scalar IDSforWSN.node[87].nic.ids 	neigh54DropGlob 	0
scalar IDSforWSN.node[87].nic.ids 	neighbour54IntentionalPacketDropping 	0
scalar IDSforWSN.node[87].nic.ids 	neigh108PackRec 	1
scalar IDSforWSN.node[87].nic.ids 	neigh108PackFwd 	1
scalar IDSforWSN.node[87].nic.ids 	neigh108DropLoc 	0
scalar IDSforWSN.node[87].nic.ids 	neigh108DropGlob 	0
scalar IDSforWSN.node[87].nic.ids 	neighbour108IntentionalPacketDropping 	0
scalar IDSforWSN.node[87].nic.ids 	Neigbors_forwardersMap 	3
scalar IDSforWSN.node[87].nic.ids 	Neighbors_neighborsSet 	8
scalar IDSforWSN.node[87].nic.ids 	data_packets_intercepted 	10
scalar IDSforWSN.node[87].nic.ids 	data_packets_me_to_somebody 	0
scalar IDSforWSN.node[87].nic.ids 	data_packets_somebody_to_me 	0
scalar IDSforWSN.node[87].nic.ids 	data_packets_somebody_to_somebody 	10
scalar IDSforWSN.node[88].nic.ids 	Neigbors_forwardersMap 	0
scalar IDSforWSN.node[88].nic.ids 	Neighbors_neighborsSet 	4
scalar IDSforWSN.node[88].nic.ids 	data_packets_intercepted 	4
scalar IDSforWSN.node[88].nic.ids 	data_packets_me_to_somebody 	0
scalar IDSforWSN.node[88].nic.ids 	data_packets_somebody_to_me 	0
scalar IDSforWSN.node[88].nic.ids 	data_packets_somebody_to_somebody 	4
scalar IDSforWSN.node[89].nic.ids 	neigh29PackRec 	1
scalar IDSforWSN.node[89].nic.ids 	neigh29PackFwd 	1
scalar IDSforWSN.node[89].nic.ids 	neigh29DropLoc 	0
scalar IDSforWSN.node[89].nic.ids 	neigh29DropGlob 	0
scalar IDSforWSN.node[89].nic.ids 	neighbour29IntentionalPacketDropping 	0
scalar IDSforWSN.node[89].nic.ids 	Neigbors_forwardersMap 	1
scalar IDSforWSN.node[89].nic.ids 	Neighbors_neighborsSet 	3
scalar IDSforWSN.node[89].nic.ids 	data_packets_intercepted 	3
scalar IDSforWSN.node[89].nic.ids 	data_packets_me_to_somebody 	0
scalar IDSforWSN.node[89].nic.ids 	data_packets_somebody_to_me 	0
scalar IDSforWSN.node[89].nic.ids 	data_packets_somebody_to_somebody 	3
scalar IDSforWSN.node[90].nic.ids 	neigh108PackRec 	2
scalar IDSforWSN.node[90].nic.ids 	neigh108PackFwd 	2
scalar IDSforWSN.node[90].nic.ids 	neigh108DropLoc 	0
scalar IDSforWSN.node[90].nic.ids 	neigh108DropGlob 	0
scalar IDSforWSN.node[90].nic.ids 	neighbour108IntentionalPacketDropping 	0
scalar IDSforWSN.node[90].nic.ids 	Neigbors_forwardersMap 	1
scalar IDSforWSN.node[90].nic.ids 	Neighbors_neighborsSet 	7
scalar IDSforWSN.node[90].nic.ids 	data_packets_intercepted 	9
scalar IDSforWSN.node[90].nic.ids 	data_packets_me_to_somebody 	1
scalar IDSforWSN.node[90].nic.ids 	data_packets_somebody_to_me 	0
scalar IDSforWSN.node[90].nic.ids 	data_packets_somebody_to_somebody 	8
scalar IDSforWSN.node[91].nic.ids 	Neigbors_forwardersMap 	0
scalar IDSforWSN.node[91].nic.ids 	Neighbors_neighborsSet 	0
scalar IDSforWSN.node[91].nic.ids 	data_packets_intercepted 	0
scalar IDSforWSN.node[91].nic.ids 	data_packets_me_to_somebody 	0
scalar IDSforWSN.node[91].nic.ids 	data_packets_somebody_to_me 	0
scalar IDSforWSN.node[91].nic.ids 	data_packets_somebody_to_somebody 	0
scalar IDSforWSN.node[92].nic.ids 	Neigbors_forwardersMap 	0
scalar IDSforWSN.node[92].nic.ids 	Neighbors_neighborsSet 	0
scalar IDSforWSN.node[92].nic.ids 	data_packets_intercepted 	0
scalar IDSforWSN.node[92].nic.ids 	data_packets_me_to_somebody 	0
scalar IDSforWSN.node[92].nic.ids 	data_packets_somebody_to_me 	0
scalar IDSforWSN.node[92].nic.ids 	data_packets_somebody_to_somebody 	0
scalar IDSforWSN.node[93].nic.ids 	neigh116PackRec 	2
scalar IDSforWSN.node[93].nic.ids 	neigh116PackFwd 	2
scalar IDSforWSN.node[93].nic.ids 	neigh116DropLoc 	0
scalar IDSforWSN.node[93].nic.ids 	neigh116DropGlob 	0
scalar IDSforWSN.node[93].nic.ids 	neighbour116IntentionalPacketDropping 	0
scalar IDSforWSN.node[93].nic.ids 	Neigbors_forwardersMap 	1
scalar IDSforWSN.node[93].nic.ids 	Neighbors_neighborsSet 	5
scalar IDSforWSN.node[93].nic.ids 	data_packets_intercepted 	8
scalar IDSforWSN.node[93].nic.ids 	data_packets_me_to_somebody 	0
scalar IDSforWSN.node[93].nic.ids 	data_packets_somebody_to_me 	0
scalar IDSforWSN.node[93].nic.ids 	data_packets_somebody_to_somebody 	8
scalar IDSforWSN.node[94].nic.ids 	Neigbors_forwardersMap 	0
scalar IDSforWSN.node[94].nic.ids 	Neighbors_neighborsSet 	0
scalar IDSforWSN.node[94].nic.ids 	data_packets_intercepted 	0
scalar IDSforWSN.node[94].nic.ids 	data_packets_me_to_somebody 	0
scalar IDSforWSN.node[94].nic.ids 	data_packets_somebody_to_me 	0
scalar IDSforWSN.node[94].nic.ids 	data_packets_somebody_to_somebody 	0
scalar IDSforWSN.node[95].nic.ids 	Neigbors_forwardersMap 	0
scalar IDSforWSN.node[95].nic.ids 	Neighbors_neighborsSet 	1
scalar IDSforWSN.node[95].nic.ids 	data_packets_intercepted 	1
scalar IDSforWSN.node[95].nic.ids 	data_packets_me_to_somebody 	0
scalar IDSforWSN.node[95].nic.ids 	data_packets_somebody_to_me 	0
scalar IDSforWSN.node[95].nic.ids 	data_packets_somebody_to_somebody 	1
scalar IDSforWSN.node[96].nic.ids 	Neigbors_forwardersMap 	0
scalar IDSforWSN.node[96].nic.ids 	Neighbors_neighborsSet 	0
scalar IDSforWSN.node[96].nic.ids 	data_packets_intercepted 	0
scalar IDSforWSN.node[96].nic.ids 	data_packets_me_to_somebody 	0
scalar IDSforWSN.node[96].nic.ids 	data_packets_somebody_to_me 	0
scalar IDSforWSN.node[96].nic.ids 	data_packets_somebody_to_somebody 	0
scalar IDSforWSN.node[97].nic.ids 	Neigbors_forwardersMap 	0
scalar IDSforWSN.node[97].nic.ids 	Neighbors_neighborsSet 	0
scalar IDSforWSN.node[97].nic.ids 	data_packets_intercepted 	0
scalar IDSforWSN.node[97].nic.ids 	data_packets_me_to_somebody 	0
scalar IDSforWSN.node[97].nic.ids 	data_packets_somebody_to_me 	0
scalar IDSforWSN.node[97].nic.ids 	data_packets_somebody_to_somebody 	0
scalar IDSforWSN.node[98].nic.ids 	Neigbors_forwardersMap 	0
scalar IDSforWSN.node[98].nic.ids 	Neighbors_neighborsSet 	0
scalar IDSforWSN.node[98].nic.ids 	data_packets_intercepted 	0
scalar IDSforWSN.node[98].nic.ids 	data_packets_me_to_somebody 	0
scalar IDSforWSN.node[98].nic.ids 	data_packets_somebody_to_me 	0
scalar IDSforWSN.node[98].nic.ids 	data_packets_somebody_to_somebody 	0
scalar IDSforWSN.node[99].nic.ids 	Neigbors_forwardersMap 	0
scalar IDSforWSN.node[99].nic.ids 	Neighbors_neighborsSet 	4
scalar IDSforWSN.node[99].nic.ids 	data_packets_intercepted 	4
scalar IDSforWSN.node[99].nic.ids 	data_packets_me_to_somebody 	0
scalar IDSforWSN.node[99].nic.ids 	data_packets_somebody_to_me 	0
scalar IDSforWSN.node[99].nic.ids 	data_packets_somebody_to_somebody 	4
scalar IDSforWSN.node[100].nic.ids 	neigh116PackRec 	2
scalar IDSforWSN.node[100].nic.ids 	neigh116PackFwd 	2
scalar IDSforWSN.node[100].nic.ids 	neigh116DropLoc 	0
scalar IDSforWSN.node[100].nic.ids 	neigh116DropGlob 	0
scalar IDSforWSN.node[100].nic.ids 	neighbour116IntentionalPacketDropping 	0
scalar IDSforWSN.node[100].nic.ids 	Neigbors_forwardersMap 	1
scalar IDSforWSN.node[100].nic.ids 	Neighbors_neighborsSet 	7
scalar IDSforWSN.node[100].nic.ids 	data_packets_intercepted 	9
scalar IDSforWSN.node[100].nic.ids 	data_packets_me_to_somebody 	0
scalar IDSforWSN.node[100].nic.ids 	data_packets_somebody_to_me 	0
scalar IDSforWSN.node[100].nic.ids 	data_packets_somebody_to_somebody 	9
scalar IDSforWSN.node[101].nic.ids 	Neigbors_forwardersMap 	0
scalar IDSforWSN.node[101].nic.ids 	Neighbors_neighborsSet 	0
scalar IDSforWSN.node[101].nic.ids 	data_packets_intercepted 	0
scalar IDSforWSN.node[101].nic.ids 	data_packets_me_to_somebody 	0
scalar IDSforWSN.node[101].nic.ids 	data_packets_somebody_to_me 	0
scalar IDSforWSN.node[101].nic.ids 	data_packets_somebody_to_somebody 	0
scalar IDSforWSN.node[102].nic.ids 	Neigbors_forwardersMap 	0
scalar IDSforWSN.node[102].nic.ids 	Neighbors_neighborsSet 	0
scalar IDSforWSN.node[102].nic.ids 	data_packets_intercepted 	0
scalar IDSforWSN.node[102].nic.ids 	data_packets_me_to_somebody 	0
scalar IDSforWSN.node[102].nic.ids 	data_packets_somebody_to_me 	0
scalar IDSforWSN.node[102].nic.ids 	data_packets_somebody_to_somebody 	0
scalar IDSforWSN.node[103].nic.ids 	Neigbors_forwardersMap 	0
scalar IDSforWSN.node[103].nic.ids 	Neighbors_neighborsSet 	0
scalar IDSforWSN.node[103].nic.ids 	data_packets_intercepted 	0
scalar IDSforWSN.node[103].nic.ids 	data_packets_me_to_somebody 	0
scalar IDSforWSN.node[103].nic.ids 	data_packets_somebody_to_me 	0
scalar IDSforWSN.node[103].nic.ids 	data_packets_somebody_to_somebody 	0
scalar IDSforWSN.node[104].nic.ids 	Neigbors_forwardersMap 	0
scalar IDSforWSN.node[104].nic.ids 	Neighbors_neighborsSet 	0
scalar IDSforWSN.node[104].nic.ids 	data_packets_intercepted 	0
scalar IDSforWSN.node[104].nic.ids 	data_packets_me_to_somebody 	0
scalar IDSforWSN.node[104].nic.ids 	data_packets_somebody_to_me 	0
scalar IDSforWSN.node[104].nic.ids 	data_packets_somebody_to_somebody 	0
scalar IDSforWSN.node[105].nic.ids 	neigh108PackRec 	1
scalar IDSforWSN.node[105].nic.ids 	neigh108PackFwd 	1
scalar IDSforWSN.node[105].nic.ids 	neigh108DropLoc 	0
scalar IDSforWSN.node[105].nic.ids 	neigh108DropGlob 	0
scalar IDSforWSN.node[105].nic.ids 	neighbour108IntentionalPacketDropping 	0
scalar IDSforWSN.node[105].nic.ids 	Neigbors_forwardersMap 	1
scalar IDSforWSN.node[105].nic.ids 	Neighbors_neighborsSet 	7
scalar IDSforWSN.node[105].nic.ids 	data_packets_intercepted 	8
scalar IDSforWSN.node[105].nic.ids 	data_packets_me_to_somebody 	0
scalar IDSforWSN.node[105].nic.ids 	data_packets_somebody_to_me 	0
scalar IDSforWSN.node[105].nic.ids 	data_packets_somebody_to_somebody 	8
scalar IDSforWSN.node[106].nic.ids 	neigh108PackRec 	1
scalar IDSforWSN.node[106].nic.ids 	neigh108PackFwd 	0
scalar IDSforWSN.node[106].nic.ids 	neigh108DropLoc 	0
scalar IDSforWSN.node[106].nic.ids 	neigh108DropGlob 	0
scalar IDSforWSN.node[106].nic.ids 	neighbour108IntentionalPacketDropping 	0
scalar IDSforWSN.node[106].nic.ids 	Neigbors_forwardersMap 	1
scalar IDSforWSN.node[106].nic.ids 	Neighbors_neighborsSet 	6
scalar IDSforWSN.node[106].nic.ids 	data_packets_intercepted 	6
scalar IDSforWSN.node[106].nic.ids 	data_packets_me_to_somebody 	0
scalar IDSforWSN.node[106].nic.ids 	data_packets_somebody_to_me 	0
scalar IDSforWSN.node[106].nic.ids 	data_packets_somebody_to_somebody 	6
scalar IDSforWSN.node[107].nic.ids 	Neigbors_forwardersMap 	0
scalar IDSforWSN.node[107].nic.ids 	Neighbors_neighborsSet 	0
scalar IDSforWSN.node[107].nic.ids 	data_packets_intercepted 	0
scalar IDSforWSN.node[107].nic.ids 	data_packets_me_to_somebody 	0
scalar IDSforWSN.node[107].nic.ids 	data_packets_somebody_to_me 	0
scalar IDSforWSN.node[107].nic.ids 	data_packets_somebody_to_somebody 	0
scalar IDSforWSN.node[108].nic.ids 	neigh8PackRec 	2
scalar IDSforWSN.node[108].nic.ids 	neigh8PackFwd 	2
scalar IDSforWSN.node[108].nic.ids 	neigh8DropLoc 	0
scalar IDSforWSN.node[108].nic.ids 	neigh8DropGlob 	0
scalar IDSforWSN.node[108].nic.ids 	neighbour8IntentionalPacketDropping 	0
scalar IDSforWSN.node[108].nic.ids 	Neigbors_forwardersMap 	1
scalar IDSforWSN.node[108].nic.ids 	Neighbors_neighborsSet 	9
scalar IDSforWSN.node[108].nic.ids 	data_packets_intercepted 	13
scalar IDSforWSN.node[108].nic.ids 	data_packets_me_to_somebody 	2
scalar IDSforWSN.node[108].nic.ids 	data_packets_somebody_to_me 	2
scalar IDSforWSN.node[108].nic.ids 	data_packets_somebody_to_somebody 	9
scalar IDSforWSN.node[109].nic.ids 	Neigbors_forwardersMap 	0
scalar IDSforWSN.node[109].nic.ids 	Neighbors_neighborsSet 	0
scalar IDSforWSN.node[109].nic.ids 	data_packets_intercepted 	0
scalar IDSforWSN.node[109].nic.ids 	data_packets_me_to_somebody 	0
scalar IDSforWSN.node[109].nic.ids 	data_packets_somebody_to_me 	0
scalar IDSforWSN.node[109].nic.ids 	data_packets_somebody_to_somebody 	0
scalar IDSforWSN.node[110].nic.ids 	Neigbors_forwardersMap 	0
scalar IDSforWSN.node[110].nic.ids 	Neighbors_neighborsSet 	0
scalar IDSforWSN.node[110].nic.ids 	data_packets_intercepted 	0
scalar IDSforWSN.node[110].nic.ids 	data_packets_me_to_somebody 	0
scalar IDSforWSN.node[110].nic.ids 	data_packets_somebody_to_me 	0
scalar IDSforWSN.node[110].nic.ids 	data_packets_somebody_to_somebody 	0
scalar IDSforWSN.node[111].nic.ids 	Neigbors_forwardersMap 	0
scalar IDSforWSN.node[111].nic.ids 	Neighbors_neighborsSet 	0
scalar IDSforWSN.node[111].nic.ids 	data_packets_intercepted 	0
scalar IDSforWSN.node[111].nic.ids 	data_packets_me_to_somebody 	0
scalar IDSforWSN.node[111].nic.ids 	data_packets_somebody_to_me 	0
scalar IDSforWSN.node[111].nic.ids 	data_packets_somebody_to_somebody 	0
scalar IDSforWSN.node[112].nic.ids 	neigh36PackRec 	1
scalar IDSforWSN.node[112].nic.ids 	neigh36PackFwd 	1
scalar IDSforWSN.node[112].nic.ids 	neigh36DropLoc 	0
scalar IDSforWSN.node[112].nic.ids 	neigh36DropGlob 	0
scalar IDSforWSN.node[112].nic.ids 	neighbour36IntentionalPacketDropping 	0
scalar IDSforWSN.node[112].nic.ids 	Neigbors_forwardersMap 	1
scalar IDSforWSN.node[112].nic.ids 	Neighbors_neighborsSet 	3
scalar IDSforWSN.node[112].nic.ids 	data_packets_intercepted 	3
scalar IDSforWSN.node[112].nic.ids 	data_packets_me_to_somebody 	0
scalar IDSforWSN.node[112].nic.ids 	data_packets_somebody_to_me 	0
scalar IDSforWSN.node[112].nic.ids 	data_packets_somebody_to_somebody 	3
scalar IDSforWSN.node[113].nic.ids 	neigh8PackRec 	1
scalar IDSforWSN.node[113].nic.ids 	neigh8PackFwd 	1
scalar IDSforWSN.node[113].nic.ids 	neigh8DropLoc 	0
scalar IDSforWSN.node[113].nic.ids 	neigh8DropGlob 	0
scalar IDSforWSN.node[113].nic.ids 	neighbour8IntentionalPacketDropping 	0
scalar IDSforWSN.node[113].nic.ids 	Neigbors_forwardersMap 	1
scalar IDSforWSN.node[113].nic.ids 	Neighbors_neighborsSet 	6
scalar IDSforWSN.node[113].nic.ids 	data_packets_intercepted 	8
scalar IDSforWSN.node[113].nic.ids 	data_packets_me_to_somebody 	0
scalar IDSforWSN.node[113].nic.ids 	data_packets_somebody_to_me 	0
scalar IDSforWSN.node[113].nic.ids 	data_packets_somebody_to_somebody 	8
scalar IDSforWSN.node[114].nic.ids 	Neigbors_forwardersMap 	0
scalar IDSforWSN.node[114].nic.ids 	Neighbors_neighborsSet 	0
scalar IDSforWSN.node[114].nic.ids 	data_packets_intercepted 	0
scalar IDSforWSN.node[114].nic.ids 	data_packets_me_to_somebody 	0
scalar IDSforWSN.node[114].nic.ids 	data_packets_somebody_to_me 	0
scalar IDSforWSN.node[114].nic.ids 	data_packets_somebody_to_somebody 	0
scalar IDSforWSN.node[115].nic.ids 	neigh116PackRec 	3
scalar IDSforWSN.node[115].nic.ids 	neigh116PackFwd 	3
scalar IDSforWSN.node[115].nic.ids 	neigh116DropLoc 	0
scalar IDSforWSN.node[115].nic.ids 	neigh116DropGlob 	0
scalar IDSforWSN.node[115].nic.ids 	neighbour116IntentionalPacketDropping 	0
scalar IDSforWSN.node[115].nic.ids 	Neigbors_forwardersMap 	1
scalar IDSforWSN.node[115].nic.ids 	Neighbors_neighborsSet 	8
scalar IDSforWSN.node[115].nic.ids 	data_packets_intercepted 	10
scalar IDSforWSN.node[115].nic.ids 	data_packets_me_to_somebody 	0
scalar IDSforWSN.node[115].nic.ids 	data_packets_somebody_to_me 	0
scalar IDSforWSN.node[115].nic.ids 	data_packets_somebody_to_somebody 	10
scalar IDSforWSN.node[116].nic.ids 	neigh206PackRec 	1
scalar IDSforWSN.node[116].nic.ids 	neigh206PackFwd 	0
scalar IDSforWSN.node[116].nic.ids 	neigh206DropLoc 	0
scalar IDSforWSN.node[116].nic.ids 	neigh206DropGlob 	0
scalar IDSforWSN.node[116].nic.ids 	neighbour206IntentionalPacketDropping 	0.5
scalar IDSforWSN.node[116].nic.ids 	Neigbors_forwardersMap 	1
scalar IDSforWSN.node[116].nic.ids 	Neighbors_neighborsSet 	8
scalar IDSforWSN.node[116].nic.ids 	data_packets_intercepted 	13
scalar IDSforWSN.node[116].nic.ids 	data_packets_me_to_somebody 	3
scalar IDSforWSN.node[116].nic.ids 	data_packets_somebody_to_me 	3
scalar IDSforWSN.node[116].nic.ids 	data_packets_somebody_to_somebody 	7
scalar IDSforWSN.node[117].nic.ids 	Neigbors_forwardersMap 	0
scalar IDSforWSN.node[117].nic.ids 	Neighbors_neighborsSet 	5
scalar IDSforWSN.node[117].nic.ids 	data_packets_intercepted 	5
scalar IDSforWSN.node[117].nic.ids 	data_packets_me_to_somebody 	0
scalar IDSforWSN.node[117].nic.ids 	data_packets_somebody_to_me 	0
scalar IDSforWSN.node[117].nic.ids 	data_packets_somebody_to_somebody 	5
scalar IDSforWSN.node[118].nic.ids 	Neigbors_forwardersMap 	0
scalar IDSforWSN.node[118].nic.ids 	Neighbors_neighborsSet 	1
scalar IDSforWSN.node[118].nic.ids 	data_packets_intercepted 	1
scalar IDSforWSN.node[118].nic.ids 	data_packets_me_to_somebody 	0
scalar IDSforWSN.node[118].nic.ids 	data_packets_somebody_to_me 	0
scalar IDSforWSN.node[118].nic.ids 	data_packets_somebody_to_somebody 	1
scalar IDSforWSN.node[119].nic.ids 	Neigbors_forwardersMap 	0
scalar IDSforWSN.node[119].nic.ids 	Neighbors_neighborsSet 	0
scalar IDSforWSN.node[119].nic.ids 	data_packets_intercepted 	0
scalar IDSforWSN.node[119].nic.ids 	data_packets_me_to_somebody 	0
scalar IDSforWSN.node[119].nic.ids 	data_packets_somebody_to_me 	0
scalar IDSforWSN.node[119].nic.ids 	data_packets_somebody_to_somebody 	0
scalar IDSforWSN.node[120].nic.ids 	Neigbors_forwardersMap 	0
scalar IDSforWSN.node[120].nic.ids 	Neighbors_neighborsSet 	2
scalar IDSforWSN.node[120].nic.ids 	data_packets_intercepted 	2
scalar IDSforWSN.node[120].nic.ids 	data_packets_me_to_somebody 	0
scalar IDSforWSN.node[120].nic.ids 	data_packets_somebody_to_me 	0
scalar IDSforWSN.node[120].nic.ids 	data_packets_somebody_to_somebody 	2
scalar IDSforWSN.node[121].nic.ids 	neigh124PackRec 	1
scalar IDSforWSN.node[121].nic.ids 	neigh124PackFwd 	1
scalar IDSforWSN.node[121].nic.ids 	neigh124DropLoc 	0
scalar IDSforWSN.node[121].nic.ids 	neigh124DropGlob 	0
scalar IDSforWSN.node[121].nic.ids 	neighbour124IntentionalPacketDropping 	0
scalar IDSforWSN.node[121].nic.ids 	Neigbors_forwardersMap 	1
scalar IDSforWSN.node[121].nic.ids 	Neighbors_neighborsSet 	2
scalar IDSforWSN.node[121].nic.ids 	data_packets_intercepted 	2
scalar IDSforWSN.node[121].nic.ids 	data_packets_me_to_somebody 	0
scalar IDSforWSN.node[121].nic.ids 	data_packets_somebody_to_me 	0
scalar IDSforWSN.node[121].nic.ids 	data_packets_somebody_to_somebody 	2
scalar IDSforWSN.node[122].nic.ids 	neigh206PackRec 	3
scalar IDSforWSN.node[122].nic.ids 	neigh206PackFwd 	1
scalar IDSforWSN.node[122].nic.ids 	neigh206DropLoc 	0
scalar IDSforWSN.node[122].nic.ids 	neigh206DropGlob 	0
scalar IDSforWSN.node[122].nic.ids 	neighbour206IntentionalPacketDropping 	0.5
scalar IDSforWSN.node[122].nic.ids 	Neigbors_forwardersMap 	1
scalar IDSforWSN.node[122].nic.ids 	Neighbors_neighborsSet 	11
scalar IDSforWSN.node[122].nic.ids 	data_packets_intercepted 	13
scalar IDSforWSN.node[122].nic.ids 	data_packets_me_to_somebody 	1
scalar IDSforWSN.node[122].nic.ids 	data_packets_somebody_to_me 	1
scalar IDSforWSN.node[122].nic.ids 	data_packets_somebody_to_somebody 	11
scalar IDSforWSN.node[123].nic.ids 	neigh124PackRec 	1
scalar IDSforWSN.node[123].nic.ids 	neigh124PackFwd 	1
scalar IDSforWSN.node[123].nic.ids 	neigh124DropLoc 	0
scalar IDSforWSN.node[123].nic.ids 	neigh124DropGlob 	0
scalar IDSforWSN.node[123].nic.ids 	neighbour124IntentionalPacketDropping 	0
scalar IDSforWSN.node[123].nic.ids 	Neigbors_forwardersMap 	1
scalar IDSforWSN.node[123].nic.ids 	Neighbors_neighborsSet 	3
scalar IDSforWSN.node[123].nic.ids 	data_packets_intercepted 	3
scalar IDSforWSN.node[123].nic.ids 	data_packets_me_to_somebody 	0
scalar IDSforWSN.node[123].nic.ids 	data_packets_somebody_to_me 	0
scalar IDSforWSN.node[123].nic.ids 	data_packets_somebody_to_somebody 	3
scalar IDSforWSN.node[124].nic.ids 	neigh165PackRec 	1
scalar IDSforWSN.node[124].nic.ids 	neigh165PackFwd 	1
scalar IDSforWSN.node[124].nic.ids 	neigh165DropLoc 	0
scalar IDSforWSN.node[124].nic.ids 	neigh165DropGlob 	0
scalar IDSforWSN.node[124].nic.ids 	neighbour165IntentionalPacketDropping 	0
scalar IDSforWSN.node[124].nic.ids 	Neigbors_forwardersMap 	1
scalar IDSforWSN.node[124].nic.ids 	Neighbors_neighborsSet 	3
scalar IDSforWSN.node[124].nic.ids 	data_packets_intercepted 	4
scalar IDSforWSN.node[124].nic.ids 	data_packets_me_to_somebody 	1
scalar IDSforWSN.node[124].nic.ids 	data_packets_somebody_to_me 	1
scalar IDSforWSN.node[124].nic.ids 	data_packets_somebody_to_somebody 	2
scalar IDSforWSN.node[125].nic.ids 	Neigbors_forwardersMap 	0
scalar IDSforWSN.node[125].nic.ids 	Neighbors_neighborsSet 	1
scalar IDSforWSN.node[125].nic.ids 	data_packets_intercepted 	1
scalar IDSforWSN.node[125].nic.ids 	data_packets_me_to_somebody 	0
scalar IDSforWSN.node[125].nic.ids 	data_packets_somebody_to_me 	0
scalar IDSforWSN.node[125].nic.ids 	data_packets_somebody_to_somebody 	1
scalar IDSforWSN.node[126].nic.ids 	Neigbors_forwardersMap 	0
scalar IDSforWSN.node[126].nic.ids 	Neighbors_neighborsSet 	2
scalar IDSforWSN.node[126].nic.ids 	data_packets_intercepted 	2
scalar IDSforWSN.node[126].nic.ids 	data_packets_me_to_somebody 	0
scalar IDSforWSN.node[126].nic.ids 	data_packets_somebody_to_me 	0
scalar IDSforWSN.node[126].nic.ids 	data_packets_somebody_to_somebody 	2
scalar IDSforWSN.node[127].nic.ids 	Neigbors_forwardersMap 	0
scalar IDSforWSN.node[127].nic.ids 	Neighbors_neighborsSet 	0
scalar IDSforWSN.node[127].nic.ids 	data_packets_intercepted 	0
scalar IDSforWSN.node[127].nic.ids 	data_packets_me_to_somebody 	0
scalar IDSforWSN.node[127].nic.ids 	data_packets_somebody_to_me 	0
scalar IDSforWSN.node[127].nic.ids 	data_packets_somebody_to_somebody 	0
scalar IDSforWSN.node[128].nic.ids 	Neigbors_forwardersMap 	0
scalar IDSforWSN.node[128].nic.ids 	Neighbors_neighborsSet 	4
scalar IDSforWSN.node[128].nic.ids 	data_packets_intercepted 	4
scalar IDSforWSN.node[128].nic.ids 	data_packets_me_to_somebody 	0
scalar IDSforWSN.node[128].nic.ids 	data_packets_somebody_to_me 	0
scalar IDSforWSN.node[128].nic.ids 	data_packets_somebody_to_somebody 	4
scalar IDSforWSN.node[129].nic.ids 	Neigbors_forwardersMap 	0
scalar IDSforWSN.node[129].nic.ids 	Neighbors_neighborsSet 	0
scalar IDSforWSN.node[129].nic.ids 	data_packets_intercepted 	0
scalar IDSforWSN.node[129].nic.ids 	data_packets_me_to_somebody 	0
scalar IDSforWSN.node[129].nic.ids 	data_packets_somebody_to_me 	0
scalar IDSforWSN.node[129].nic.ids 	data_packets_somebody_to_somebody 	0
scalar IDSforWSN.node[130].nic.ids 	Neigbors_forwardersMap 	0
scalar IDSforWSN.node[130].nic.ids 	Neighbors_neighborsSet 	4
scalar IDSforWSN.node[130].nic.ids 	data_packets_intercepted 	5
scalar IDSforWSN.node[130].nic.ids 	data_packets_me_to_somebody 	0
scalar IDSforWSN.node[130].nic.ids 	data_packets_somebody_to_me 	0
scalar IDSforWSN.node[130].nic.ids 	data_packets_somebody_to_somebody 	5
scalar IDSforWSN.node[131].nic.ids 	Neigbors_forwardersMap 	0
scalar IDSforWSN.node[131].nic.ids 	Neighbors_neighborsSet 	0
scalar IDSforWSN.node[131].nic.ids 	data_packets_intercepted 	0
scalar IDSforWSN.node[131].nic.ids 	data_packets_me_to_somebody 	0
scalar IDSforWSN.node[131].nic.ids 	data_packets_somebody_to_me 	0
scalar IDSforWSN.node[131].nic.ids 	data_packets_somebody_to_somebody 	0
scalar IDSforWSN.node[132].nic.ids 	Neigbors_forwardersMap 	0
scalar IDSforWSN.node[132].nic.ids 	Neighbors_neighborsSet 	0
scalar IDSforWSN.node[132].nic.ids 	data_packets_intercepted 	0
scalar IDSforWSN.node[132].nic.ids 	data_packets_me_to_somebody 	0
scalar IDSforWSN.node[132].nic.ids 	data_packets_somebody_to_me 	0
scalar IDSforWSN.node[132].nic.ids 	data_packets_somebody_to_somebody 	0
scalar IDSforWSN.node[133].nic.ids 	neigh108PackRec 	1
scalar IDSforWSN.node[133].nic.ids 	neigh108PackFwd 	1
scalar IDSforWSN.node[133].nic.ids 	neigh108DropLoc 	0
scalar IDSforWSN.node[133].nic.ids 	neigh108DropGlob 	0
scalar IDSforWSN.node[133].nic.ids 	neighbour108IntentionalPacketDropping 	0
scalar IDSforWSN.node[133].nic.ids 	neigh185PackRec 	1
scalar IDSforWSN.node[133].nic.ids 	neigh185PackFwd 	1
scalar IDSforWSN.node[133].nic.ids 	neigh185DropLoc 	0
scalar IDSforWSN.node[133].nic.ids 	neigh185DropGlob 	0
scalar IDSforWSN.node[133].nic.ids 	neighbour185IntentionalPacketDropping 	0
scalar IDSforWSN.node[133].nic.ids 	Neigbors_forwardersMap 	2
scalar IDSforWSN.node[133].nic.ids 	Neighbors_neighborsSet 	5
scalar IDSforWSN.node[133].nic.ids 	data_packets_intercepted 	7
scalar IDSforWSN.node[133].nic.ids 	data_packets_me_to_somebody 	1
scalar IDSforWSN.node[133].nic.ids 	data_packets_somebody_to_me 	0
scalar IDSforWSN.node[133].nic.ids 	data_packets_somebody_to_somebody 	6
scalar IDSforWSN.node[134].nic.ids 	neigh108PackRec 	1
scalar IDSforWSN.node[134].nic.ids 	neigh108PackFwd 	0
scalar IDSforWSN.node[134].nic.ids 	neigh108DropLoc 	0
scalar IDSforWSN.node[134].nic.ids 	neigh108DropGlob 	0
scalar IDSforWSN.node[134].nic.ids 	neighbour108IntentionalPacketDropping 	0
scalar IDSforWSN.node[134].nic.ids 	Neigbors_forwardersMap 	1
scalar IDSforWSN.node[134].nic.ids 	Neighbors_neighborsSet 	6
scalar IDSforWSN.node[134].nic.ids 	data_packets_intercepted 	6
scalar IDSforWSN.node[134].nic.ids 	data_packets_me_to_somebody 	0
scalar IDSforWSN.node[134].nic.ids 	data_packets_somebody_to_me 	0
scalar IDSforWSN.node[134].nic.ids 	data_packets_somebody_to_somebody 	6
scalar IDSforWSN.node[135].nic.ids 	Neigbors_forwardersMap 	0
scalar IDSforWSN.node[135].nic.ids 	Neighbors_neighborsSet 	0
scalar IDSforWSN.node[135].nic.ids 	data_packets_intercepted 	0
scalar IDSforWSN.node[135].nic.ids 	data_packets_me_to_somebody 	0
scalar IDSforWSN.node[135].nic.ids 	data_packets_somebody_to_me 	0
scalar IDSforWSN.node[135].nic.ids 	data_packets_somebody_to_somebody 	0
scalar IDSforWSN.node[136].nic.ids 	neigh116PackRec 	2
scalar IDSforWSN.node[136].nic.ids 	neigh116PackFwd 	2
scalar IDSforWSN.node[136].nic.ids 	neigh116DropLoc 	0
scalar IDSforWSN.node[136].nic.ids 	neigh116DropGlob 	0
scalar IDSforWSN.node[136].nic.ids 	neighbour116IntentionalPacketDropping 	0
scalar IDSforWSN.node[136].nic.ids 	Neigbors_forwardersMap 	1
scalar IDSforWSN.node[136].nic.ids 	Neighbors_neighborsSet 	11
scalar IDSforWSN.node[136].nic.ids 	data_packets_intercepted 	13
scalar IDSforWSN.node[136].nic.ids 	data_packets_me_to_somebody 	0
scalar IDSforWSN.node[136].nic.ids 	data_packets_somebody_to_me 	0
scalar IDSforWSN.node[136].nic.ids 	data_packets_somebody_to_somebody 	13
scalar IDSforWSN.node[137].nic.ids 	Neigbors_forwardersMap 	0
scalar IDSforWSN.node[137].nic.ids 	Neighbors_neighborsSet 	4
scalar IDSforWSN.node[137].nic.ids 	data_packets_intercepted 	4
scalar IDSforWSN.node[137].nic.ids 	data_packets_me_to_somebody 	0
scalar IDSforWSN.node[137].nic.ids 	data_packets_somebody_to_me 	0
scalar IDSforWSN.node[137].nic.ids 	data_packets_somebody_to_somebody 	4
scalar IDSforWSN.node[138].nic.ids 	Neigbors_forwardersMap 	0
scalar IDSforWSN.node[138].nic.ids 	Neighbors_neighborsSet 	0
scalar IDSforWSN.node[138].nic.ids 	data_packets_intercepted 	0
scalar IDSforWSN.node[138].nic.ids 	data_packets_me_to_somebody 	0
scalar IDSforWSN.node[138].nic.ids 	data_packets_somebody_to_me 	0
scalar IDSforWSN.node[138].nic.ids 	data_packets_somebody_to_somebody 	0
scalar IDSforWSN.node[139].nic.ids 	Neigbors_forwardersMap 	0
scalar IDSforWSN.node[139].nic.ids 	Neighbors_neighborsSet 	2
scalar IDSforWSN.node[139].nic.ids 	data_packets_intercepted 	2
scalar IDSforWSN.node[139].nic.ids 	data_packets_me_to_somebody 	0
scalar IDSforWSN.node[139].nic.ids 	data_packets_somebody_to_me 	0
scalar IDSforWSN.node[139].nic.ids 	data_packets_somebody_to_somebody 	2
scalar IDSforWSN.node[140].nic.ids 	Neigbors_forwardersMap 	0
scalar IDSforWSN.node[140].nic.ids 	Neighbors_neighborsSet 	1
scalar IDSforWSN.node[140].nic.ids 	data_packets_intercepted 	1
scalar IDSforWSN.node[140].nic.ids 	data_packets_me_to_somebody 	0
scalar IDSforWSN.node[140].nic.ids 	data_packets_somebody_to_me 	0
scalar IDSforWSN.node[140].nic.ids 	data_packets_somebody_to_somebody 	1
scalar IDSforWSN.node[141].nic.ids 	Neigbors_forwardersMap 	0
scalar IDSforWSN.node[141].nic.ids 	Neighbors_neighborsSet 	5
scalar IDSforWSN.node[141].nic.ids 	data_packets_intercepted 	5
scalar IDSforWSN.node[141].nic.ids 	data_packets_me_to_somebody 	0
scalar IDSforWSN.node[141].nic.ids 	data_packets_somebody_to_me 	0
scalar IDSforWSN.node[141].nic.ids 	data_packets_somebody_to_somebody 	5
scalar IDSforWSN.node[142].nic.ids 	Neigbors_forwardersMap 	0
scalar IDSforWSN.node[142].nic.ids 	Neighbors_neighborsSet 	2
scalar IDSforWSN.node[142].nic.ids 	data_packets_intercepted 	2
scalar IDSforWSN.node[142].nic.ids 	data_packets_me_to_somebody 	0
scalar IDSforWSN.node[142].nic.ids 	data_packets_somebody_to_me 	0
scalar IDSforWSN.node[142].nic.ids 	data_packets_somebody_to_somebody 	2
scalar IDSforWSN.node[143].nic.ids 	Neigbors_forwardersMap 	0
scalar IDSforWSN.node[143].nic.ids 	Neighbors_neighborsSet 	0
scalar IDSforWSN.node[143].nic.ids 	data_packets_intercepted 	0
scalar IDSforWSN.node[143].nic.ids 	data_packets_me_to_somebody 	0
scalar IDSforWSN.node[143].nic.ids 	data_packets_somebody_to_me 	0
scalar IDSforWSN.node[143].nic.ids 	data_packets_somebody_to_somebody 	0
scalar IDSforWSN.node[144].nic.ids 	neigh52PackRec 	1
scalar IDSforWSN.node[144].nic.ids 	neigh52PackFwd 	1
scalar IDSforWSN.node[144].nic.ids 	neigh52DropLoc 	0
scalar IDSforWSN.node[144].nic.ids 	neigh52DropGlob 	0
scalar IDSforWSN.node[144].nic.ids 	neighbour52IntentionalPacketDropping 	0
scalar IDSforWSN.node[144].nic.ids 	Neigbors_forwardersMap 	1
scalar IDSforWSN.node[144].nic.ids 	Neighbors_neighborsSet 	4
scalar IDSforWSN.node[144].nic.ids 	data_packets_intercepted 	4
scalar IDSforWSN.node[144].nic.ids 	data_packets_me_to_somebody 	0
scalar IDSforWSN.node[144].nic.ids 	data_packets_somebody_to_me 	0
scalar IDSforWSN.node[144].nic.ids 	data_packets_somebody_to_somebody 	4
scalar IDSforWSN.node[145].nic.ids 	Neigbors_forwardersMap 	0
scalar IDSforWSN.node[145].nic.ids 	Neighbors_neighborsSet 	0
scalar IDSforWSN.node[145].nic.ids 	data_packets_intercepted 	0
scalar IDSforWSN.node[145].nic.ids 	data_packets_me_to_somebody 	0
scalar IDSforWSN.node[145].nic.ids 	data_packets_somebody_to_me 	0
scalar IDSforWSN.node[145].nic.ids 	data_packets_somebody_to_somebody 	0
scalar IDSforWSN.node[146].nic.ids 	Neigbors_forwardersMap 	0
scalar IDSforWSN.node[146].nic.ids 	Neighbors_neighborsSet 	0
scalar IDSforWSN.node[146].nic.ids 	data_packets_intercepted 	0
scalar IDSforWSN.node[146].nic.ids 	data_packets_me_to_somebody 	0
scalar IDSforWSN.node[146].nic.ids 	data_packets_somebody_to_me 	0
scalar IDSforWSN.node[146].nic.ids 	data_packets_somebody_to_somebody 	0
scalar IDSforWSN.node[147].nic.ids 	Neigbors_forwardersMap 	0
scalar IDSforWSN.node[147].nic.ids 	Neighbors_neighborsSet 	7
scalar IDSforWSN.node[147].nic.ids 	data_packets_intercepted 	7
scalar IDSforWSN.node[147].nic.ids 	data_packets_me_to_somebody 	0
scalar IDSforWSN.node[147].nic.ids 	data_packets_somebody_to_me 	0
scalar IDSforWSN.node[147].nic.ids 	data_packets_somebody_to_somebody 	7
scalar IDSforWSN.node[148].nic.ids 	Neigbors_forwardersMap 	0
scalar IDSforWSN.node[148].nic.ids 	Neighbors_neighborsSet 	1
scalar IDSforWSN.node[148].nic.ids 	data_packets_intercepted 	1
scalar IDSforWSN.node[148].nic.ids 	data_packets_me_to_somebody 	0
scalar IDSforWSN.node[148].nic.ids 	data_packets_somebody_to_me 	0
scalar IDSforWSN.node[148].nic.ids 	data_packets_somebody_to_somebody 	1
scalar IDSforWSN.node[149].nic.ids 	Neigbors_forwardersMap 	0
scalar IDSforWSN.node[149].nic.ids 	Neighbors_neighborsSet 	1
scalar IDSforWSN.node[149].nic.ids 	data_packets_intercepted 	1
scalar IDSforWSN.node[149].nic.ids 	data_packets_me_to_somebody 	0
scalar IDSforWSN.node[149].nic.ids 	data_packets_somebody_to_me 	0
scalar IDSforWSN.node[149].nic.ids 	data_packets_somebody_to_somebody 	1
scalar IDSforWSN.node[150].nic.ids 	Neigbors_forwardersMap 	0
[...]
scalar IDSforWSN.node[211].nic.ids 	Neigbors_forwardersMap 	0
scalar IDSforWSN.node[211].nic.ids 	Neighbors_neighborsSet 	6
scalar IDSforWSN.node[211].nic.ids 	data_packets_intercepted 	6
scalar IDSforWSN.node[211].nic.ids 	data_packets_me_to_somebody 	0
scalar IDSforWSN.node[211].nic.ids 	data_packets_somebody_to_me 	0
scalar IDSforWSN.node[211].nic.ids 	data_packets_somebody_to_somebody 	6
scalar IDSforWSN.node[212].nic.ids 	neigh165PackRec 	1
scalar IDSforWSN.node[212].nic.ids 	neigh165PackFwd 	1
scalar IDSforWSN.node[212].nic.ids 	neigh165DropLoc 	0
scalar IDSforWSN.node[212].nic.ids 	neigh165DropGlob 	0
scalar IDSforWSN.node[212].nic.ids 	neighbour165IntentionalPacketDropping 	0
scalar IDSforWSN.node[212].nic.ids 	Neigbors_forwardersMap 	1
scalar IDSforWSN.node[212].nic.ids 	Neighbors_neighborsSet 	3
scalar IDSforWSN.node[212].nic.ids 	data_packets_intercepted 	3
scalar IDSforWSN.node[212].nic.ids 	data_packets_me_to_somebody 	0
scalar IDSforWSN.node[212].nic.ids 	data_packets_somebody_to_me 	0
scalar IDSforWSN.node[212].nic.ids 	data_packets_somebody_to_somebody 	3
scalar IDSforWSN.node[213].nic.ids 	Neigbors_forwardersMap 	0
scalar IDSforWSN.node[213].nic.ids 	Neighbors_neighborsSet 	0
scalar IDSforWSN.node[213].nic.ids 	data_packets_intercepted 	0
scalar IDSforWSN.node[213].nic.ids 	data_packets_me_to_somebody 	0
scalar IDSforWSN.node[213].nic.ids 	data_packets_somebody_to_me 	0
scalar IDSforWSN.node[213].nic.ids 	data_packets_somebody_to_somebody 	0
scalar IDSforWSN.node[214].nic.ids 	Neigbors_forwardersMap 	0
scalar IDSforWSN.node[214].nic.ids 	Neighbors_neighborsSet 	1
scalar IDSforWSN.node[214].nic.ids 	data_packets_intercepted 	1
scalar IDSforWSN.node[214].nic.ids 	data_packets_me_to_somebody 	0
scalar IDSforWSN.node[214].nic.ids 	data_packets_somebody_to_me 	0
scalar IDSforWSN.node[214].nic.ids 	data_packets_somebody_to_somebody 	1
scalar IDSforWSN.node[215].nic.ids 	Neigbors_forwardersMap 	0
scalar IDSforWSN.node[215].nic.ids 	Neighbors_neighborsSet 	3
scalar IDSforWSN.node[215].nic.ids 	data_packets_intercepted 	3
scalar IDSforWSN.node[215].nic.ids 	data_packets_me_to_somebody 	0
scalar IDSforWSN.node[215].nic.ids 	data_packets_somebody_to_me 	0
scalar IDSforWSN.node[215].nic.ids 	data_packets_somebody_to_somebody 	3
scalar IDSforWSN.node[216].nic.ids 	Neigbors_forwardersMap 	0
scalar IDSforWSN.node[216].nic.ids 	Neighbors_neighborsSet 	2
scalar IDSforWSN.node[216].nic.ids 	data_packets_intercepted 	2
scalar IDSforWSN.node[216].nic.ids 	data_packets_me_to_somebody 	0
scalar IDSforWSN.node[216].nic.ids 	data_packets_somebody_to_me 	0
scalar IDSforWSN.node[216].nic.ids 	data_packets_somebody_to_somebody 	2
scalar IDSforWSN.node[217].nic.ids 	Neigbors_forwardersMap 	0
scalar IDSforWSN.node[217].nic.ids 	Neighbors_neighborsSet 	2
scalar IDSforWSN.node[217].nic.ids 	data_packets_intercepted 	2
scalar IDSforWSN.node[217].nic.ids 	data_packets_me_to_somebody 	0
scalar IDSforWSN.node[217].nic.ids 	data_packets_somebody_to_me 	0
scalar IDSforWSN.node[217].nic.ids 	data_packets_somebody_to_somebody 	2
scalar IDSforWSN.node[218].nic.ids 	Neigbors_forwardersMap 	0
scalar IDSforWSN.node[218].nic.ids 	Neighbors_neighborsSet 	0
scalar IDSforWSN.node[218].nic.ids 	data_packets_intercepted 	0
scalar IDSforWSN.node[218].nic.ids 	data_packets_me_to_somebody 	0
scalar IDSforWSN.node[218].nic.ids 	data_packets_somebody_to_me 	0
scalar IDSforWSN.node[218].nic.ids 	data_packets_somebody_to_somebody 	0
scalar IDSforWSN.node[219].nic.ids 	Neigbors_forwardersMap 	0
scalar IDSforWSN.node[219].nic.ids 	Neighbors_neighborsSet 	0
scalar IDSforWSN.node[219].nic.ids 	data_packets_intercepted 	0
scalar IDSforWSN.node[219].nic.ids 	data_packets_me_to_somebody 	0
scalar IDSforWSN.node[219].nic.ids 	data_packets_somebody_to_me 	0
scalar IDSforWSN.node[219].nic.ids 	data_packets_somebody_to_somebody 	0
scalar IDSforWSN.node[220].nic.ids 	neigh124PackRec 	1
scalar IDSforWSN.node[220].nic.ids 	neigh124PackFwd 	1
scalar IDSforWSN.node[220].nic.ids 	neigh124DropLoc 	0
scalar IDSforWSN.node[220].nic.ids 	neigh124DropGlob 	0
scalar IDSforWSN.node[220].nic.ids 	neighbour124IntentionalPacketDropping 	0
scalar IDSforWSN.node[220].nic.ids 	Neigbors_forwardersMap 	1
scalar IDSforWSN.node[220].nic.ids 	Neighbors_neighborsSet 	2
scalar IDSforWSN.node[220].nic.ids 	data_packets_intercepted 	2
scalar IDSforWSN.node[220].nic.ids 	data_packets_me_to_somebody 	0
scalar IDSforWSN.node[220].nic.ids 	data_packets_somebody_to_me 	0
scalar IDSforWSN.node[220].nic.ids 	data_packets_somebody_to_somebody 	2
scalar IDSforWSN.node[221].nic.ids 	Neigbors_forwardersMap 	0
scalar IDSforWSN.node[221].nic.ids 	Neighbors_neighborsSet 	0
scalar IDSforWSN.node[221].nic.ids 	data_packets_intercepted 	0
scalar IDSforWSN.node[221].nic.ids 	data_packets_me_to_somebody 	0
scalar IDSforWSN.node[221].nic.ids 	data_packets_somebody_to_me 	0
scalar IDSforWSN.node[221].nic.ids 	data_packets_somebody_to_somebody 	0
scalar IDSforWSN.node[222].nic.ids 	Neigbors_forwardersMap 	0
scalar IDSforWSN.node[222].nic.ids 	Neighbors_neighborsSet 	0
scalar IDSforWSN.node[222].nic.ids 	data_packets_intercepted 	0
scalar IDSforWSN.node[222].nic.ids 	data_packets_me_to_somebody 	0
scalar IDSforWSN.node[222].nic.ids 	data_packets_somebody_to_me 	0
scalar IDSforWSN.node[222].nic.ids 	data_packets_somebody_to_somebody 	0
scalar IDSforWSN.node[223].nic.ids 	Neigbors_forwardersMap 	0
scalar IDSforWSN.node[223].nic.ids 	Neighbors_neighborsSet 	1
scalar IDSforWSN.node[223].nic.ids 	data_packets_intercepted 	1
scalar IDSforWSN.node[223].nic.ids 	data_packets_me_to_somebody 	0
scalar IDSforWSN.node[223].nic.ids 	data_packets_somebody_to_me 	0
scalar IDSforWSN.node[223].nic.ids 	data_packets_somebody_to_somebody 	1
scalar IDSforWSN.node[224].nic.ids 	neigh9PackRec 	1
scalar IDSforWSN.node[224].nic.ids 	neigh9PackFwd 	1
scalar IDSforWSN.node[224].nic.ids 	neigh9DropLoc 	0
scalar IDSforWSN.node[224].nic.ids 	neigh9DropGlob 	0
scalar IDSforWSN.node[224].nic.ids 	neighbour9IntentionalPacketDropping 	0
scalar IDSforWSN.node[224].nic.ids 	Neigbors_forwardersMap 	1
scalar IDSforWSN.node[224].nic.ids 	Neighbors_neighborsSet 	8
scalar IDSforWSN.node[224].nic.ids 	data_packets_intercepted 	9
scalar IDSforWSN.node[224].nic.ids 	data_packets_me_to_somebody 	1
scalar IDSforWSN.node[224].nic.ids 	data_packets_somebody_to_me 	0
scalar IDSforWSN.node[224].nic.ids 	data_packets_somebody_to_somebody 	8
scalar IDSforWSN.node[225].nic.ids 	Neigbors_forwardersMap 	0
scalar IDSforWSN.node[225].nic.ids 	Neighbors_neighborsSet 	1
scalar IDSforWSN.node[225].nic.ids 	data_packets_intercepted 	1
scalar IDSforWSN.node[225].nic.ids 	data_packets_me_to_somebody 	0
scalar IDSforWSN.node[225].nic.ids 	data_packets_somebody_to_me 	0
scalar IDSforWSN.node[225].nic.ids 	data_packets_somebody_to_somebody 	1
scalar IDSforWSN.node[226].nic.ids 	Neigbors_forwardersMap 	0
scalar IDSforWSN.node[226].nic.ids 	Neighbors_neighborsSet 	0
scalar IDSforWSN.node[226].nic.ids 	data_packets_intercepted 	0
scalar IDSforWSN.node[226].nic.ids 	data_packets_me_to_somebody 	0
scalar IDSforWSN.node[226].nic.ids 	data_packets_somebody_to_me 	0
scalar IDSforWSN.node[226].nic.ids 	data_packets_somebody_to_somebody 	0
scalar IDSforWSN.node[227].nic.ids 	Neigbors_forwardersMap 	0
scalar IDSforWSN.node[227].nic.ids 	Neighbors_neighborsSet 	0
scalar IDSforWSN.node[227].nic.ids 	data_packets_intercepted 	0
scalar IDSforWSN.node[227].nic.ids 	data_packets_me_to_somebody 	0
scalar IDSforWSN.node[227].nic.ids 	data_packets_somebody_to_me 	0
scalar IDSforWSN.node[227].nic.ids 	data_packets_somebody_to_somebody 	0
scalar IDSforWSN.node[228].nic.ids 	Neigbors_forwardersMap 	0
scalar IDSforWSN.node[228].nic.ids 	Neighbors_neighborsSet 	0
scalar IDSforWSN.node[228].nic.ids 	data_packets_intercepted 	0
scalar IDSforWSN.node[228].nic.ids 	data_packets_me_to_somebody 	0
scalar IDSforWSN.node[228].nic.ids 	data_packets_somebody_to_me 	0
scalar IDSforWSN.node[228].nic.ids 	data_packets_somebody_to_somebody 	0
scalar IDSforWSN.node[229].nic.ids 	Neigbors_forwardersMap 	0
scalar IDSforWSN.node[229].nic.ids 	Neighbors_neighborsSet 	2
scalar IDSforWSN.node[229].nic.ids 	data_packets_intercepted 	2
scalar IDSforWSN.node[229].nic.ids 	data_packets_me_to_somebody 	0
scalar IDSforWSN.node[229].nic.ids 	data_packets_somebody_to_me 	0
scalar IDSforWSN.node[229].nic.ids 	data_packets_somebody_to_somebody 	2
scalar IDSforWSN.node[230].nic.ids 	Neigbors_forwardersMap 	0
scalar IDSforWSN.node[230].nic.ids 	Neighbors_neighborsSet 	1
scalar IDSforWSN.node[230].nic.ids 	data_packets_intercepted 	1
scalar IDSforWSN.node[230].nic.ids 	data_packets_me_to_somebody 	0
scalar IDSforWSN.node[230].nic.ids 	data_packets_somebody_to_me 	0
scalar IDSforWSN.node[230].nic.ids 	data_packets_somebody_to_somebody 	1
scalar IDSforWSN.node[231].nic.ids 	Neigbors_forwardersMap 	0
scalar IDSforWSN.node[231].nic.ids 	Neighbors_neighborsSet 	1
scalar IDSforWSN.node[231].nic.ids 	data_packets_intercepted 	1
scalar IDSforWSN.node[231].nic.ids 	data_packets_me_to_somebody 	0
scalar IDSforWSN.node[231].nic.ids 	data_packets_somebody_to_me 	0
scalar IDSforWSN.node[231].nic.ids 	data_packets_somebody_to_somebody 	1
scalar IDSforWSN.node[232].nic.ids 	Neigbors_forwardersMap 	0
scalar IDSforWSN.node[232].nic.ids 	Neighbors_neighborsSet 	0
scalar IDSforWSN.node[232].nic.ids 	data_packets_intercepted 	0
scalar IDSforWSN.node[232].nic.ids 	data_packets_me_to_somebody 	0
scalar IDSforWSN.node[232].nic.ids 	data_packets_somebody_to_me 	0
scalar IDSforWSN.node[232].nic.ids 	data_packets_somebody_to_somebody 	0
scalar IDSforWSN.node[233].nic.ids 	Neigbors_forwardersMap 	0
scalar IDSforWSN.node[233].nic.ids 	Neighbors_neighborsSet 	0
scalar IDSforWSN.node[233].nic.ids 	data_packets_intercepted 	0
scalar IDSforWSN.node[233].nic.ids 	data_packets_me_to_somebody 	0
scalar IDSforWSN.node[233].nic.ids 	data_packets_somebody_to_me 	0
scalar IDSforWSN.node[233].nic.ids 	data_packets_somebody_to_somebody 	0
scalar IDSforWSN.node[234].nic.ids 	Neigbors_forwardersMap 	0
scalar IDSforWSN.node[234].nic.ids 	Neighbors_neighborsSet 	3
scalar IDSforWSN.node[234].nic.ids 	data_packets_intercepted 	3
scalar IDSforWSN.node[234].nic.ids 	data_packets_me_to_somebody 	0
scalar IDSforWSN.node[234].nic.ids 	data_packets_somebody_to_me 	0
scalar IDSforWSN.node[234].nic.ids 	data_packets_somebody_to_somebody 	3
scalar IDSforWSN.node[235].nic.ids 	Neigbors_forwardersMap 	0
scalar IDSforWSN.node[235].nic.ids 	Neighbors_neighborsSet 	1
scalar IDSforWSN.node[235].nic.ids 	data_packets_intercepted 	1
scalar IDSforWSN.node[235].nic.ids 	data_packets_me_to_somebody 	0
scalar IDSforWSN.node[235].nic.ids 	data_packets_somebody_to_me 	0
scalar IDSforWSN.node[235].nic.ids 	data_packets_somebody_to_somebody 	1
scalar IDSforWSN.node[236].nic.ids 	neigh116PackRec 	1
scalar IDSforWSN.node[236].nic.ids 	neigh116PackFwd 	1
scalar IDSforWSN.node[236].nic.ids 	neigh116DropLoc 	0
scalar IDSforWSN.node[236].nic.ids 	neigh116DropGlob 	0
scalar IDSforWSN.node[236].nic.ids 	neighbour116IntentionalPacketDropping 	0
scalar IDSforWSN.node[236].nic.ids 	neigh241PackRec 	1
scalar IDSforWSN.node[236].nic.ids 	neigh241PackFwd 	1
scalar IDSforWSN.node[236].nic.ids 	neigh241DropLoc 	0
scalar IDSforWSN.node[236].nic.ids 	neigh241DropGlob 	0
scalar IDSforWSN.node[236].nic.ids 	neighbour241IntentionalPacketDropping 	0
scalar IDSforWSN.node[236].nic.ids 	Neigbors_forwardersMap 	2
scalar IDSforWSN.node[236].nic.ids 	Neighbors_neighborsSet 	6
scalar IDSforWSN.node[236].nic.ids 	data_packets_intercepted 	8
scalar IDSforWSN.node[236].nic.ids 	data_packets_me_to_somebody 	1
scalar IDSforWSN.node[236].nic.ids 	data_packets_somebody_to_me 	1
scalar IDSforWSN.node[236].nic.ids 	data_packets_somebody_to_somebody 	6
scalar IDSforWSN.node[237].nic.ids 	Neigbors_forwardersMap 	0
scalar IDSforWSN.node[237].nic.ids 	Neighbors_neighborsSet 	1
scalar IDSforWSN.node[237].nic.ids 	data_packets_intercepted 	2
scalar IDSforWSN.node[237].nic.ids 	data_packets_me_to_somebody 	0
scalar IDSforWSN.node[237].nic.ids 	data_packets_somebody_to_me 	0
scalar IDSforWSN.node[237].nic.ids 	data_packets_somebody_to_somebody 	2
scalar IDSforWSN.node[238].nic.ids 	Neigbors_forwardersMap 	0
scalar IDSforWSN.node[238].nic.ids 	Neighbors_neighborsSet 	1
scalar IDSforWSN.node[238].nic.ids 	data_packets_intercepted 	1
scalar IDSforWSN.node[238].nic.ids 	data_packets_me_to_somebody 	0
scalar IDSforWSN.node[238].nic.ids 	data_packets_somebody_to_me 	0
scalar IDSforWSN.node[238].nic.ids 	data_packets_somebody_to_somebody 	1
scalar IDSforWSN.node[239].nic.ids 	neigh206PackRec 	3
scalar IDSforWSN.node[239].nic.ids 	neigh206PackFwd 	2
scalar IDSforWSN.node[239].nic.ids 	neigh206DropLoc 	0
scalar IDSforWSN.node[239].nic.ids 	neigh206DropGlob 	0
scalar IDSforWSN.node[239].nic.ids 	neighbour206IntentionalPacketDropping 	0.5
scalar IDSforWSN.node[239].nic.ids 	Neigbors_forwardersMap 	1
scalar IDSforWSN.node[239].nic.ids 	Neighbors_neighborsSet 	11
scalar IDSforWSN.node[239].nic.ids 	data_packets_intercepted 	14
scalar IDSforWSN.node[239].nic.ids 	data_packets_me_to_somebody 	1
scalar IDSforWSN.node[239].nic.ids 	data_packets_somebody_to_me 	1
scalar IDSforWSN.node[239].nic.ids 	data_packets_somebody_to_somebody 	12
scalar IDSforWSN.node[240].nic.ids 	Neigbors_forwardersMap 	0
scalar IDSforWSN.node[240].nic.ids 	Neighbors_neighborsSet 	1
scalar IDSforWSN.node[240].nic.ids 	data_packets_intercepted 	1
scalar IDSforWSN.node[240].nic.ids 	data_packets_me_to_somebody 	0
scalar IDSforWSN.node[240].nic.ids 	data_packets_somebody_to_me 	0
scalar IDSforWSN.node[240].nic.ids 	data_packets_somebody_to_somebody 	1
scalar IDSforWSN.node[241].nic.ids 	neigh116PackRec 	3
scalar IDSforWSN.node[241].nic.ids 	neigh116PackFwd 	3
scalar IDSforWSN.node[241].nic.ids 	neigh116DropLoc 	0
scalar IDSforWSN.node[241].nic.ids 	neigh116DropGlob 	0
scalar IDSforWSN.node[241].nic.ids 	neighbour116IntentionalPacketDropping 	0
scalar IDSforWSN.node[241].nic.ids 	Neigbors_forwardersMap 	1
scalar IDSforWSN.node[241].nic.ids 	Neighbors_neighborsSet 	7
scalar IDSforWSN.node[241].nic.ids 	data_packets_intercepted 	10
scalar IDSforWSN.node[241].nic.ids 	data_packets_me_to_somebody 	1
scalar IDSforWSN.node[241].nic.ids 	data_packets_somebody_to_me 	1
scalar IDSforWSN.node[241].nic.ids 	data_packets_somebody_to_somebody 	8
scalar IDSforWSN.node[242].nic.ids 	neigh49PackRec 	1
scalar IDSforWSN.node[242].nic.ids 	neigh49PackFwd 	1
scalar IDSforWSN.node[242].nic.ids 	neigh49DropLoc 	0
scalar IDSforWSN.node[242].nic.ids 	neigh49DropGlob 	0
scalar IDSforWSN.node[242].nic.ids 	neighbour49IntentionalPacketDropping 	0
scalar IDSforWSN.node[242].nic.ids 	Neigbors_forwardersMap 	1
scalar IDSforWSN.node[242].nic.ids 	Neighbors_neighborsSet 	7
scalar IDSforWSN.node[242].nic.ids 	data_packets_intercepted 	8
scalar IDSforWSN.node[242].nic.ids 	data_packets_me_to_somebody 	1
scalar IDSforWSN.node[242].nic.ids 	data_packets_somebody_to_me 	0
scalar IDSforWSN.node[242].nic.ids 	data_packets_somebody_to_somebody 	7
scalar IDSforWSN.node[243].nic.ids 	Neigbors_forwardersMap 	0
scalar IDSforWSN.node[243].nic.ids 	Neighbors_neighborsSet 	1
scalar IDSforWSN.node[243].nic.ids 	data_packets_intercepted 	1
scalar IDSforWSN.node[243].nic.ids 	data_packets_me_to_somebody 	0
scalar IDSforWSN.node[243].nic.ids 	data_packets_somebody_to_me 	0
scalar IDSforWSN.node[243].nic.ids 	data_packets_somebody_to_somebody 	1
scalar IDSforWSN.node[244].nic.ids 	Neigbors_forwardersMap 	0
scalar IDSforWSN.node[244].nic.ids 	Neighbors_neighborsSet 	0
scalar IDSforWSN.node[244].nic.ids 	data_packets_intercepted 	0
scalar IDSforWSN.node[244].nic.ids 	data_packets_me_to_somebody 	0
scalar IDSforWSN.node[244].nic.ids 	data_packets_somebody_to_me 	0
scalar IDSforWSN.node[244].nic.ids 	data_packets_somebody_to_somebody 	0
scalar IDSforWSN.node[245].nic.ids 	neigh108PackRec 	1
scalar IDSforWSN.node[245].nic.ids 	neigh108PackFwd 	1
scalar IDSforWSN.node[245].nic.ids 	neigh108DropLoc 	0
scalar IDSforWSN.node[245].nic.ids 	neigh108DropGlob 	0
scalar IDSforWSN.node[245].nic.ids 	neighbour108IntentionalPacketDropping 	0
scalar IDSforWSN.node[245].nic.ids 	Neigbors_forwardersMap 	1
scalar IDSforWSN.node[245].nic.ids 	Neighbors_neighborsSet 	6
scalar IDSforWSN.node[245].nic.ids 	data_packets_intercepted 	7
scalar IDSforWSN.node[245].nic.ids 	data_packets_me_to_somebody 	0
scalar IDSforWSN.node[245].nic.ids 	data_packets_somebody_to_me 	0
scalar IDSforWSN.node[245].nic.ids 	data_packets_somebody_to_somebody 	7
scalar IDSforWSN.node[246].nic.ids 	neigh206PackRec 	3
scalar IDSforWSN.node[246].nic.ids 	neigh206PackFwd 	2
scalar IDSforWSN.node[246].nic.ids 	neigh206DropLoc 	0
scalar IDSforWSN.node[246].nic.ids 	neigh206DropGlob 	0
scalar IDSforWSN.node[246].nic.ids 	neighbour206IntentionalPacketDropping 	0.5
scalar IDSforWSN.node[246].nic.ids 	Neigbors_forwardersMap 	1
scalar IDSforWSN.node[246].nic.ids 	Neighbors_neighborsSet 	9
scalar IDSforWSN.node[246].nic.ids 	data_packets_intercepted 	11
scalar IDSforWSN.node[246].nic.ids 	data_packets_me_to_somebody 	1
scalar IDSforWSN.node[246].nic.ids 	data_packets_somebody_to_me 	1
scalar IDSforWSN.node[246].nic.ids 	data_packets_somebody_to_somebody 	9
scalar IDSforWSN.node[247].nic.ids 	Neigbors_forwardersMap 	0
scalar IDSforWSN.node[247].nic.ids 	Neighbors_neighborsSet 	0
scalar IDSforWSN.node[247].nic.ids 	data_packets_intercepted 	0
scalar IDSforWSN.node[247].nic.ids 	data_packets_me_to_somebody 	0
scalar IDSforWSN.node[247].nic.ids 	data_packets_somebody_to_me 	0
scalar IDSforWSN.node[247].nic.ids 	data_packets_somebody_to_somebody 	0
scalar IDSforWSN.node[248].nic.ids 	neigh49PackRec 	1
scalar IDSforWSN.node[248].nic.ids 	neigh49PackFwd 	1
scalar IDSforWSN.node[248].nic.ids 	neigh49DropLoc 	0
scalar IDSforWSN.node[248].nic.ids 	neigh49DropGlob 	0
scalar IDSforWSN.node[248].nic.ids 	neighbour49IntentionalPacketDropping 	0
scalar IDSforWSN.node[248].nic.ids 	Neigbors_forwardersMap 	1
scalar IDSforWSN.node[248].nic.ids 	Neighbors_neighborsSet 	8
scalar IDSforWSN.node[248].nic.ids 	data_packets_intercepted 	8
scalar IDSforWSN.node[248].nic.ids 	data_packets_me_to_somebody 	0
scalar IDSforWSN.node[248].nic.ids 	data_packets_somebody_to_me 	0
scalar IDSforWSN.node[248].nic.ids 	data_packets_somebody_to_somebody 	8
scalar IDSforWSN.node[249].nic.ids 	Neigbors_forwardersMap 	0
scalar IDSforWSN.node[249].nic.ids 	Neighbors_neighborsSet 	1
scalar IDSforWSN.node[249].nic.ids 	data_packets_intercepted 	1
scalar IDSforWSN.node[249].nic.ids 	data_packets_me_to_somebody 	0
scalar IDSforWSN.node[249].nic.ids 	data_packets_somebody_to_me 	0
scalar IDSforWSN.node[249].nic.ids 	data_packets_somebody_to_somebody 	1
scalar IDSforWSN.node[250].nic.ids 	neigh8PackRec 	2
scalar IDSforWSN.node[250].nic.ids 	neigh8PackFwd 	2
scalar IDSforWSN.node[250].nic.ids 	neigh8DropLoc 	0
scalar IDSforWSN.node[250].nic.ids 	neigh8DropGlob 	0
scalar IDSforWSN.node[250].nic.ids 	neighbour8IntentionalPacketDropping 	0
scalar IDSforWSN.node[250].nic.ids 	neigh108PackRec 	1
scalar IDSforWSN.node[250].nic.ids 	neigh108PackFwd 	1
scalar IDSforWSN.node[250].nic.ids 	neigh108DropLoc 	0
scalar IDSforWSN.node[250].nic.ids 	neigh108DropGlob 	0
scalar IDSforWSN.node[250].nic.ids 	neighbour108IntentionalPacketDropping 	0
scalar IDSforWSN.node[250].nic.ids 	neigh206PackRec 	1
scalar IDSforWSN.node[250].nic.ids 	neigh206PackFwd 	0
scalar IDSforWSN.node[250].nic.ids 	neigh206DropLoc 	0
scalar IDSforWSN.node[250].nic.ids 	neigh206DropGlob 	0
scalar IDSforWSN.node[250].nic.ids 	neighbour206IntentionalPacketDropping 	0.5
scalar IDSforWSN.node[250].nic.ids 	Neigbors_forwardersMap 	3
scalar IDSforWSN.node[250].nic.ids 	Neighbors_neighborsSet 	11
scalar IDSforWSN.node[250].nic.ids 	data_packets_intercepted 	17
scalar IDSforWSN.node[250].nic.ids 	data_packets_me_to_somebody 	0
scalar IDSforWSN.node[250].nic.ids 	data_packets_somebody_to_me 	9
scalar IDSforWSN.node[250].nic.ids 	data_packets_somebody_to_somebody 	8
